<?xml version="1.0" encoding="UTF-8"?>

<!-- generated on 2023-03-22 12:18:13 by Eclipse SUMO netedit Version 1.16.0
<configuration xmlns:xsi="http://www.w3.org/2001/XMLSchema-instance" xsi:noNamespaceSchemaLocation="http://sumo.dlr.de/xsd/netconvertConfiguration.xsd">

    <input>
        <sumocfg-file value="C:\Users\rohak.roy\Sumo\testInductionLoop\testInductionLoop.sumocfg"/>
        <sumo-net-file value="C:\Users\rohak.roy\Sumo\testInductionLoop\testInductionLoop.net.xml"/>
    </input>

    <output>
        <output-file value="C:\Users\rohak.roy\Sumo\testInductionLoop\testInductionLoop.net.xml"/>
    </output>

    <processing>
        <offset.disable-normalization value="true"/>
    </processing>

    <junctions>
        <no-turnarounds value="true"/>
    </junctions>

    <netedit>
        <new-network value="false"/>
    </netedit>

</configuration>
-->

<net version="1.16" junctionCornerDetail="5" limitTurnSpeed="5.50" xmlns:xsi="http://www.w3.org/2001/XMLSchema-instance" xsi:noNamespaceSchemaLocation="http://sumo.dlr.de/xsd/net_file.xsd">

    <location netOffset="0.00,0.00" convBoundary="0.00,-100.00,300.00,0.00" origBoundary="10000000000.00,10000000000.00,-10000000000.00,-10000000000.00" projParameter="!"/>

    <edge id=":J0_0" function="internal">
        <lane id=":J0_0_0" index="0" speed="6.94" length="18.23" shape="10.57,1.60 4.46,1.05 1.98,-0.60 3.13,-3.35 7.91,-7.19"/>
    </edge>
    <edge id=":J0_1" function="internal">
        <lane id=":J0_1_0" index="0" speed="4.36" length="6.08" shape="9.68,-4.53 8.09,-3.25 7.70,-2.33 8.53,-1.78 10.57,-1.60"/>
    </edge>
    <edge id=":J1_0" function="internal">
        <lane id=":J1_0_0" index="0" speed="13.89" length="0.10" shape="150.00,1.60 150.00,1.60"/>
    </edge>
    <edge id=":J1_1" function="internal">
        <lane id=":J1_1_0" index="0" speed="13.89" length="0.10" shape="150.00,-1.60 150.00,-1.60"/>
    </edge>
    <edge id=":J2_0" function="internal">
        <lane id=":J2_0_0" index="0" speed="6.94" length="18.23" shape="292.09,-7.19 296.87,-3.35 298.02,-0.60 295.54,1.05 289.43,1.60"/>
    </edge>
    <edge id=":J2_1" function="internal">
        <lane id=":J2_1_0" index="0" speed="4.36" length="6.08" shape="289.43,-1.60 291.47,-1.78 292.30,-2.33 291.91,-3.25 290.32,-4.53"/>
    </edge>
    <edge id=":J3_0" function="internal">
        <lane id=":J3_0_0" index="0" speed="3.97" length="1.89" shape="150.89,-97.49 150.44,-97.71 150.00,-97.78 149.56,-97.71 149.11,-97.49"/>
    </edge>
    <edge id=":J3_1" function="internal">
        <lane id=":J3_1_0" index="0" speed="6.21" length="5.68" shape="147.34,-100.15 148.67,-100.81 150.00,-101.04 151.33,-100.81 152.66,-100.15"/>
    </edge>

    <edge id="-E0" from="J1" to="J0" priority="-1">
        <lane id="-E0_0" index="0" speed="13.89" length="139.43" shape="150.00,1.60 10.57,1.60"/>
    </edge>
    <edge id="-E1" from="J2" to="J1" priority="-1">
        <lane id="-E1_0" index="0" speed="13.89" length="139.43" shape="289.43,1.60 150.00,1.60"/>
    </edge>
    <edge id="-E2" from="J3" to="J2" priority="-1">
        <lane id="-E2_0" index="0" speed="13.89" length="167.58" shape="152.66,-100.15 292.09,-7.19"/>
    </edge>
    <edge id="-E3" from="J3" to="J0" priority="-1">
        <lane id="-E3_0" index="0" speed="13.89" length="167.58" shape="149.11,-97.49 9.68,-4.53"/>
    </edge>
    <edge id="E0" from="J0" to="J1" priority="-1">
        <lane id="E0_0" index="0" speed="13.89" length="139.43" shape="10.57,-1.60 150.00,-1.60"/>
    </edge>
    <edge id="E1" from="J1" to="J2" priority="-1">
        <lane id="E1_0" index="0" speed="13.89" length="139.43" shape="150.00,-1.60 289.43,-1.60"/>
    </edge>
    <edge id="E2" from="J2" to="J3" priority="-1">
        <lane id="E2_0" index="0" speed="13.89" length="167.58" shape="290.32,-4.53 150.89,-97.49"/>
    </edge>
    <edge id="E3" from="J0" to="J3" priority="-1">
        <lane id="E3_0" index="0" speed="13.89" length="167.58" shape="7.91,-7.19 147.34,-100.15"/>
    </edge>

    <junction id="J0" type="priority" x="0.00" y="0.00" incLanes="-E0_0 -E3_0" intLanes=":J0_0_0 :J0_1_0" shape="10.57,3.20 10.57,-3.20 7.02,-8.53 2.23,-4.94 -0.40,-2.01 -0.89,0.27 0.78,1.90 4.60,2.87">
        <request index="0" response="00" foes="00" cont="0"/>
        <request index="1" response="00" foes="00" cont="0"/>
    </junction>
    <junction id="J1" type="priority" x="150.00" y="0.00" incLanes="-E1_0 E0_0" intLanes=":J1_0_0 :J1_1_0" shape="150.00,3.20 150.00,-3.20 150.00,3.20">
        <request index="0" response="00" foes="00" cont="0"/>
        <request index="1" response="00" foes="00" cont="0"/>
    </junction>
    <junction id="J2" type="priority" x="300.00" y="0.00" incLanes="-E2_0 E1_0" intLanes=":J2_0_0 :J2_1_0" shape="292.98,-8.53 289.43,-3.20 289.43,3.20 295.40,2.87 299.22,1.90 300.89,0.27 300.40,-2.01 297.77,-4.94">
        <request index="0" response="00" foes="00" cont="0"/>
        <request index="1" response="00" foes="00" cont="0"/>
    </junction>
    <junction id="J3" type="priority" x="150.00" y="-100.00" incLanes="E2_0 E3_0" intLanes=":J3_0_0 :J3_1_0" shape="150.00,-96.15 153.55,-101.48 151.18,-102.53 150.00,-102.66 148.82,-102.53 147.63,-102.14 146.45,-101.48">
        <request index="0" response="00" foes="00" cont="0"/>
        <request index="1" response="00" foes="00" cont="0"/>
    </junction>

    <connection from="-E0" to="E3" fromLane="0" toLane="0" via=":J0_0_0" dir="l" state="M"/>
    <connection from="-E1" to="-E0" fromLane="0" toLane="0" via=":J1_0_0" dir="s" state="M"/>
    <connection from="-E2" to="-E1" fromLane="0" toLane="0" via=":J2_0_0" dir="l" state="M"/>
    <connection from="-E3" to="E0" fromLane="0" toLane="0" via=":J0_1_0" dir="r" state="M"/>
    <connection from="E0" to="E1" fromLane="0" toLane="0" via=":J1_1_0" dir="s" state="M"/>
    <connection from="E1" to="E2" fromLane="0" toLane="0" via=":J2_1_0" dir="r" state="M"/>
    <connection from="E2" to="-E3" fromLane="0" toLane="0" via=":J3_0_0" dir="r" state="M"/>
    <connection from="E3" to="-E2" fromLane="0" toLane="0" via=":J3_1_0" dir="l" state="M"/>

    <connection from=":J0_0" to="E3" fromLane="0" toLane="0" dir="l" state="M"/>
    <connection from=":J0_1" to="E0" fromLane="0" toLane="0" dir="r" state="M"/>
    <connection from=":J1_0" to="-E0" fromLane="0" toLane="0" dir="s" state="M"/>
    <connection from=":J1_1" to="E1" fromLane="0" toLane="0" dir="s" state="M"/>
    <connection from=":J2_0" to="-E1" fromLane="0" toLane="0" dir="l" state="M"/>
    <connection from=":J2_1" to="E2" fromLane="0" toLane="0" dir="r" state="M"/>
    <connection from=":J3_0" to="-E3" fromLane="0" toLane="0" dir="r" state="M"/>
    <connection from=":J3_1" to="-E2" fromLane="0" toLane="0" dir="l" state="M"/>

</net>
