<routes>
    <vType id="car" vClass="passenger"/>
    <route id="carRoute" edges="E0 E1 E2 -E3"/>
    <vehicle id="car1" type="car" depart="0.00" route="carRoute"/>

</routes>