<routes>

<vType id="car" vClass="passenger" color="230,230,250"/>
<vType id="bus" vClass="bus" color="255, 165, 0"/>
<vType id="trailer" vClass="trailer" color="255,192,203"/>
<vType id="motorcycle" vClass="motorcycle" color="red"/>
<vType id="bicycle" vClass="bicycle" color="yellow"/>
<vType id="mini-truck" vClass="delivery" color="blue"/>
<vType id="van" vClass="hov" color="green"/>

<route id="route_01" edges="WtoJ JtoE "/>

<!-- <vehicle id="car_01" type="car" depart="0.00" route="route_01"/> -->
<!-- <vehicle id="bus_01" type="bus" depart="0.00" route="route_01"/> -->
<!-- <vehicle id="trailer_01" type="trailer" depart="0.00" route="route_01"/> -->
<!-- <vehicle id="motorcycle_01" type="motorcycle" depart="0.00" route="route_01"/> -->
<!-- <vehicle id="bicycle_01" type="bicycle" depart="0.00" route="route_01"/> -->
<!-- <vehicle id="mini-truck_01" type="mini-truck" depart="0.00" route="route_01"/> -->
<vehicle id="van_01" type="van" depart="0.00" route="route_01"/>

</routes>