<?xml version="1.0" encoding="UTF-8"?>

<!-- generated on 2023-03-14 14:22:35.221284 by osmWebWizard.py v1_16_0+0000-94ec4c6cd72
<configuration>
    <allow-fringe.min-length value="1000.0"/>
    <begin value="0"/>
    <end value="3600"/>
    <fringe-factor value="5"/>
    <fringe-start-attributes value="departSpeed=&quot;max&quot;"/>
    <insertion-density value="12.0"/>
    <lanes value="True"/>
    <min-distance.fringe value="10.0"/>
    <min-distance value="300.0"/>
    <net-file value="C:\Users\rohak.roy\Sumo\2023-03-14-14-22-24\osm.net.xml.gz"/>
    <remove-loops value="True"/>
    <route-file value="C:\Users\rohak.roy\Sumo\2023-03-14-14-22-24\osm.passenger.rou.xml"/>
    <trip-attributes value="departLane=&quot;best&quot;"/>
    <output-trip-file value="C:\Users\rohak.roy\Sumo\2023-03-14-14-22-24\osm.passenger.trips.xml"/>
    <prefix value="veh"/>
    <validate value="True"/>
    <vehicle-class value="passenger"/>
</configuration>
-->

<!-- generated on 2023-03-14 14:22:34 by Eclipse SUMO duarouter Version 1.16.0
<configuration xmlns:xsi="http://www.w3.org/2001/XMLSchema-instance" xsi:noNamespaceSchemaLocation="http://sumo.dlr.de/xsd/duarouterConfiguration.xsd">

    <input>
        <net-file value="C:\Users\rohak.roy\Sumo\2023-03-14-14-22-24\osm.net.xml.gz"/>
        <route-files value="C:\Users\rohak.roy\Sumo\2023-03-14-14-22-24\osm.passenger.trips.xml"/>
    </input>

    <output>
        <output-file value="C:\Users\rohak.roy\Sumo\2023-03-14-14-22-24\osm.passenger.trips.xml.tmp"/>
        <alternatives-output value="NUL"/>
        <write-trips value="true"/>
    </output>

    <processing>
        <remove-loops value="true"/>
    </processing>

    <time>
        <begin value="0"/>
        <end value="3600"/>
    </time>

    <report>
        <no-warnings value="true"/>
        <ignore-errors value="true"/>
        <no-step-log value="true"/>
    </report>

</configuration>
-->

<routes xmlns:xsi="http://www.w3.org/2001/XMLSchema-instance" xsi:noNamespaceSchemaLocation="http://sumo.dlr.de/xsd/routes_file.xsd">
    <vType id="veh_passenger" vClass="passenger"/>
    <trip id="veh0" type="veh_passenger" depart="0.00" departLane="best" from="-37354496#7" to="145292598#1"/>
    <trip id="veh1" type="veh_passenger" depart="4.23" departLane="best" from="-4319669#0" to="4315779#0"/>
    <trip id="veh2" type="veh_passenger" depart="8.46" departLane="best" from="4313844#1" to="4019352#3"/>
    <trip id="veh3" type="veh_passenger" depart="12.69" departLane="best" from="562882081" to="-24239292#1"/>
    <trip id="veh4" type="veh_passenger" depart="16.93" departLane="best" from="-145292581#4" to="145292605#3"/>
    <trip id="veh5" type="veh_passenger" depart="21.16" departLane="best" from="-4313965#3" to="20343248#4"/>
    <trip id="veh6" type="veh_passenger" depart="25.39" departLane="best" from="-145292598#4" to="-4313845#3"/>
    <trip id="veh7" type="veh_passenger" depart="29.62" departLane="best" from="38696934#0" to="295167546"/>
    <trip id="veh8" type="veh_passenger" depart="33.85" departLane="best" from="-4313970" to="357564000#4"/>
    <trip id="veh9" type="veh_passenger" depart="38.08" departLane="best" from="4315921#1" to="106678899"/>
    <trip id="veh10" type="veh_passenger" depart="42.32" departLane="best" from="-4315919#4" to="42878548#3"/>
    <trip id="veh11" type="veh_passenger" depart="46.55" departLane="best" from="729748506#2" to="665176848"/>
    <trip id="veh12" type="veh_passenger" depart="50.78" departLane="best" from="4322383#0" to="36996524#2"/>
    <trip id="veh13" type="veh_passenger" depart="55.01" departLane="best" from="-4315920#1" to="4311393#3"/>
    <trip id="veh14" type="veh_passenger" depart="59.24" departLane="best" from="-25632250#2" to="25662420"/>
    <trip id="veh15" type="veh_passenger" depart="63.47" departLane="best" from="93545871" to="326498370"/>
    <trip id="veh16" type="veh_passenger" depart="67.71" departLane="best" from="4319667#6" to="37283065#1"/>
    <trip id="veh17" type="veh_passenger" depart="71.94" departLane="best" from="4374865" to="3552330#7"/>
    <trip id="veh18" type="veh_passenger" depart="76.17" departLane="best" from="42879139" to="-179090969#0"/>
    <trip id="veh19" type="veh_passenger" depart="80.40" departLane="best" from="-4315784#0" to="-4345222#4"/>
    <trip id="veh20" type="veh_passenger" depart="84.63" departLane="best" from="-22634489#2" to="-4315791#2"/>
    <trip id="veh21" type="veh_passenger" depart="88.86" departLane="best" from="-25663277#1" to="4319764#2"/>
    <trip id="veh22" type="veh_passenger" depart="93.10" departLane="best" from="37354496#0" to="80931396"/>
    <trip id="veh23" type="veh_passenger" depart="97.33" departLane="best" from="-80931407#0" to="-4313959#0"/>
    <trip id="veh24" type="veh_passenger" depart="101.56" departLane="best" from="-4315932#2" to="-69323248"/>
    <trip id="veh25" type="veh_passenger" depart="105.79" departLane="best" from="382889005" to="37002027#0"/>
    <trip id="veh26" type="veh_passenger" depart="110.02" departLane="best" from="-42879139" to="4311393#2"/>
    <trip id="veh27" type="veh_passenger" depart="114.25" departLane="best" from="-4081699#5" to="98497788#0"/>
    <trip id="veh28" type="veh_passenger" depart="118.49" departLane="best" from="-98497788#2" to="382884739#0"/>
    <trip id="veh30" type="veh_passenger" depart="126.95" departLane="best" from="4320671#3" to="4315791#1"/>
    <trip id="veh31" type="veh_passenger" depart="131.18" departLane="best" from="4315784#2" to="157013473#1"/>
    <trip id="veh32" type="veh_passenger" depart="135.41" departLane="best" from="-4861308#11" to="-4319667#4"/>
    <trip id="veh33" type="veh_passenger" depart="139.64" departLane="best" from="-4313900#6" to="727163717#3"/>
    <trip id="veh34" type="veh_passenger" depart="143.88" departLane="best" from="39019570#1" to="1041419770#4"/>
    <trip id="veh35" type="veh_passenger" depart="148.11" departLane="best" from="651817261#1" to="193802636#2"/>
    <trip id="veh36" type="veh_passenger" depart="152.34" departLane="best" from="-4315930#0" to="4315916#1"/>
    <trip id="veh39" type="veh_passenger" depart="165.03" departLane="best" from="1041419770#2" to="-4315594#0"/>
    <trip id="veh40" type="veh_passenger" depart="169.27" departLane="best" from="98497812#0" to="22634491#0"/>
    <trip id="veh41" type="veh_passenger" depart="173.50" departLane="best" from="24359993#1" to="-179090969#1"/>
    <trip id="veh42" type="veh_passenger" depart="177.73" departLane="best" from="-296335301" to="37354486#3"/>
    <trip id="veh43" type="veh_passenger" depart="181.96" departLane="best" from="4315798#8" to="145292598#0"/>
    <trip id="veh44" type="veh_passenger" depart="186.19" departLane="best" from="-194089144#1" to="98497788#4"/>
    <trip id="veh45" type="veh_passenger" depart="190.42" departLane="best" from="98497800#0" to="25632250#2"/>
    <trip id="veh46" type="veh_passenger" depart="194.66" departLane="best" departSpeed="max" from="89079691#0" to="4374865"/>
    <trip id="veh47" type="veh_passenger" depart="198.89" departLane="best" from="-109995386#2" to="4308334#1"/>
    <trip id="veh48" type="veh_passenger" depart="203.12" departLane="best" from="651817261#1" to="261464010#0"/>
    <trip id="veh49" type="veh_passenger" depart="207.35" departLane="best" from="-4315932#2" to="382884739#0"/>
    <trip id="veh50" type="veh_passenger" depart="211.58" departLane="best" from="-3552330#2" to="177586090#0"/>
    <trip id="veh51" type="veh_passenger" depart="215.81" departLane="best" from="180484939" to="729158631#0"/>
    <trip id="veh52" type="veh_passenger" depart="220.05" departLane="best" from="4745120#0" to="4315932#2"/>
    <trip id="veh53" type="veh_passenger" depart="224.28" departLane="best" from="203025717" to="-4308326#1"/>
    <trip id="veh54" type="veh_passenger" depart="228.51" departLane="best" from="-4345233" to="37372355#1"/>
    <trip id="veh55" type="veh_passenger" depart="232.74" departLane="best" from="36996649#2" to="-39019570#3"/>
    <trip id="veh56" type="veh_passenger" depart="236.97" departLane="best" from="-4315750#0" to="-26230324#0"/>
    <trip id="veh57" type="veh_passenger" depart="241.20" departLane="best" from="4315791#2" to="25662319#0"/>
    <trip id="veh58" type="veh_passenger" depart="245.44" departLane="best" from="-1005578772#0" to="574877223#0"/>
    <trip id="veh59" type="veh_passenger" depart="249.67" departLane="best" from="145292587#0" to="68330213#1"/>
    <trip id="veh60" type="veh_passenger" depart="253.90" departLane="best" from="4745125" to="-4319761#0"/>
    <trip id="veh61" type="veh_passenger" depart="258.13" departLane="best" from="-463690553" to="193994529#0"/>
    <trip id="veh62" type="veh_passenger" depart="262.36" departLane="best" from="4745124#1" to="-728225665#1"/>
    <trip id="veh63" type="veh_passenger" depart="266.59" departLane="best" from="-22888053#5" to="202761561#1"/>
    <trip id="veh64" type="veh_passenger" depart="270.83" departLane="best" from="-194944265" to="-4315750#1"/>
    <trip id="veh65" type="veh_passenger" depart="275.06" departLane="best" from="-70156730" to="-357564000#2"/>
    <trip id="veh66" type="veh_passenger" depart="279.29" departLane="best" from="194089144#2" to="326498370"/>
    <trip id="veh67" type="veh_passenger" depart="283.52" departLane="best" from="-4315930#1" to="471285353"/>
    <trip id="veh68" type="veh_passenger" depart="287.75" departLane="best" from="145292587#0" to="-4313959#5"/>
    <trip id="veh69" type="veh_passenger" depart="291.98" departLane="best" from="25662811#1" to="-4313840#0"/>
    <trip id="veh70" type="veh_passenger" depart="296.22" departLane="best" from="-4313845#2" to="-4861308#14"/>
    <trip id="veh71" type="veh_passenger" depart="300.45" departLane="best" from="98497796#7" to="389720415"/>
    <trip id="veh72" type="veh_passenger" depart="304.68" departLane="best" from="157013473#9" to="22888053#5"/>
    <trip id="veh73" type="veh_passenger" depart="308.91" departLane="best" from="3552330#8" to="-4315784#0"/>
    <trip id="veh74" type="veh_passenger" depart="313.14" departLane="best" from="-651817263" to="-357564000#2"/>
    <trip id="veh75" type="veh_passenger" depart="317.37" departLane="best" from="431578444" to="4315750#0"/>
    <trip id="veh76" type="veh_passenger" depart="321.61" departLane="best" from="-203025711#0" to="37354494#4"/>
    <trip id="veh77" type="veh_passenger" depart="325.84" departLane="best" from="4315784#2" to="-574877223#0"/>
    <trip id="veh78" type="veh_passenger" depart="330.07" departLane="best" from="4345228#0" to="-203032223#0"/>
    <trip id="veh79" type="veh_passenger" depart="334.30" departLane="best" from="-4315792#1" to="4003185#2"/>
    <trip id="veh80" type="veh_passenger" depart="338.53" departLane="best" from="-4313959#3" to="36972459#1"/>
    <trip id="veh81" type="veh_passenger" depart="342.76" departLane="best" from="70451529" to="-3552330#3"/>
    <trip id="veh82" type="veh_passenger" depart="347.00" departLane="best" from="-4315920#2" to="-4313840#0"/>
    <trip id="veh83" type="veh_passenger" depart="351.23" departLane="best" from="-25632250#0" to="-157013473#4"/>
    <trip id="veh84" type="veh_passenger" depart="355.46" departLane="best" from="145292587#1" to="194089144#1"/>
    <trip id="veh86" type="veh_passenger" depart="363.92" departLane="best" from="93545877#3" to="-25662811#3"/>
    <trip id="veh87" type="veh_passenger" depart="368.15" departLane="best" from="-106678895" to="-675562344"/>
    <trip id="veh88" type="veh_passenger" depart="372.39" departLane="best" from="4374865" to="-4315919#0"/>
    <trip id="veh90" type="veh_passenger" depart="380.85" departLane="best" from="145292581#4" to="-4319764#3"/>
    <trip id="veh91" type="veh_passenger" depart="385.08" departLane="best" from="-4315916#1" to="665176848"/>
    <trip id="veh92" type="veh_passenger" depart="389.31" departLane="best" from="277904864" to="-180484939"/>
    <trip id="veh93" type="veh_passenger" depart="393.54" departLane="best" from="99181712#1" to="4319764#1"/>
    <trip id="veh94" type="veh_passenger" depart="397.78" departLane="best" from="85997447#0" to="4301896#0"/>
    <trip id="veh95" type="veh_passenger" depart="402.01" departLane="best" from="4322384#0" to="-420900902"/>
    <trip id="veh96" type="veh_passenger" depart="406.24" departLane="best" from="202755223" to="-4313965#0"/>
    <trip id="veh97" type="veh_passenger" depart="410.47" departLane="best" from="1041419770#4" to="-193994536#0"/>
    <trip id="veh98" type="veh_passenger" depart="414.70" departLane="best" from="-93545877#0" to="-93769444#0"/>
    <trip id="veh99" type="veh_passenger" depart="418.93" departLane="best" from="-4315930#1" to="-4315795#2"/>
    <trip id="veh100" type="veh_passenger" depart="423.17" departLane="best" from="186830510#2" to="145292598#1"/>
    <!-- <trip id="veh101" type="veh_passenger" depart="427.40" departLane="best" from="-194089144#0" to="98497796#7"/>
    <trip id="veh102" type="veh_passenger" depart="431.63" departLane="best" from="3511958#0" to="-4308329#1"/>
    <trip id="veh103" type="veh_passenger" depart="435.86" departLane="best" from="39019570#3" to="-4608634#1"/>
    <trip id="veh104" type="veh_passenger" depart="440.09" departLane="best" from="85997447#0" to="3552330#8"/>
    <trip id="veh105" type="veh_passenger" depart="444.32" departLane="best" from="-25663302#1" to="4313900#5"/>
    <trip id="veh106" type="veh_passenger" depart="448.56" departLane="best" from="-193802639#0" to="3552331#7"/>
    <trip id="veh107" type="veh_passenger" depart="452.79" departLane="best" from="203026158#0" to="4345222#1"/>
    <trip id="veh108" type="veh_passenger" depart="457.02" departLane="best" from="-4019350#1" to="729748506#2"/>
    <trip id="veh109" type="veh_passenger" depart="461.25" departLane="best" from="-22634489#2" to="-4308331"/>
    <trip id="veh110" type="veh_passenger" depart="465.48" departLane="best" from="-36972459#1" to="4019350#1"/>
    <trip id="veh111" type="veh_passenger" depart="469.71" departLane="best" from="549954532#1" to="4315916#1"/>
    <trip id="veh112" type="veh_passenger" depart="473.95" departLane="best" from="-36972459#0" to="37283067#0"/>
    <trip id="veh113" type="veh_passenger" depart="478.18" departLane="best" from="13064527#3" to="3552331#6"/>
    <trip id="veh114" type="veh_passenger" depart="482.41" departLane="best" from="22888053#2" to="-689761978#1"/>
    <trip id="veh115" type="veh_passenger" depart="486.64" departLane="best" from="-4313896#0" to="4308328#1"/>
    <trip id="veh116" type="veh_passenger" depart="490.87" departLane="best" from="4315792#2" to="1041419770#4"/>
    <trip id="veh117" type="veh_passenger" depart="495.10" departLane="best" from="4003185#1" to="-4608634#8"/>
    <trip id="veh118" type="veh_passenger" depart="499.34" departLane="best" from="-4861308#14" to="4313959#5"/>
    <trip id="veh119" type="veh_passenger" depart="503.57" departLane="best" from="203032223#1" to="193802636#1"/>
    <trip id="veh120" type="veh_passenger" depart="507.80" departLane="best" from="-203035035#1" to="-4313959#8"/>
    <trip id="veh121" type="veh_passenger" depart="512.03" departLane="best" from="-4315930#1" to="69323241#0"/>
    <trip id="veh122" type="veh_passenger" depart="516.26" departLane="best" from="-477381734" to="-4745130"/>
    <trip id="veh123" type="veh_passenger" depart="520.49" departLane="best" from="-80931396" to="-4067416#2"/>
    <trip id="veh124" type="veh_passenger" depart="524.72" departLane="best" from="4319669#3" to="42879142#6"/>
    <trip id="veh125" type="veh_passenger" depart="528.96" departLane="best" from="36996703" to="-95210204#0"/>
    <trip id="veh126" type="veh_passenger" depart="533.19" departLane="best" from="389720415" to="-109196963#1"/>
    <trip id="veh127" type="veh_passenger" depart="537.42" departLane="best" from="39020688#0" to="-69990576#2"/>
    <trip id="veh128" type="veh_passenger" depart="541.65" departLane="best" from="-273193508#1" to="347974310"/>
    <trip id="veh129" type="veh_passenger" depart="545.88" departLane="best" from="-4319667#6" to="36996535"/>
    <trip id="veh130" type="veh_passenger" depart="550.11" departLane="best" from="-4308326#4" to="4313896#5"/>
    <trip id="veh131" type="veh_passenger" depart="554.35" departLane="best" from="202755224#2" to="574877223#0"/>
    <trip id="veh133" type="veh_passenger" depart="562.81" departLane="best" from="145292587#1" to="-4319763#3"/>
    <trip id="veh134" type="veh_passenger" depart="567.04" departLane="best" from="1026676682" to="4315786#0"/>
    <trip id="veh135" type="veh_passenger" depart="571.27" departLane="best" from="37354496#11" to="4315930#1"/>
    <trip id="veh136" type="veh_passenger" depart="575.50" departLane="best" from="4313845#4" to="326498370"/>
    <trip id="veh137" type="veh_passenger" depart="579.74" departLane="best" from="145292594#1" to="109196963#5"/>
    <trip id="veh138" type="veh_passenger" depart="583.97" departLane="best" from="203035035#7" to="4861308#16"/>
    <trip id="veh139" type="veh_passenger" depart="588.20" departLane="best" from="-574877223#6" to="296335301"/>
    <trip id="veh140" type="veh_passenger" depart="592.43" departLane="best" from="4319761#0" to="3552331#4"/>
    <trip id="veh141" type="veh_passenger" depart="596.66" departLane="best" from="-37354496#12" to="-357564000#12"/>
    <trip id="veh142" type="veh_passenger" depart="600.89" departLane="best" from="-471285351" to="-562882081"/>
    <trip id="veh143" type="veh_passenger" depart="605.13" departLane="best" from="4315897#0" to="4374865"/>
    <trip id="veh144" type="veh_passenger" depart="609.36" departLane="best" from="574877223#0" to="-4313959#1"/>
    <trip id="veh145" type="veh_passenger" depart="613.59" departLane="best" from="-4315916#0" to="-26230319#1"/>
    <trip id="veh146" type="veh_passenger" depart="617.82" departLane="best" from="4315791#4" to="-4861308#2"/>
    <trip id="veh147" type="veh_passenger" depart="622.05" departLane="best" from="108842670#2" to="37283090#0"/>
    <trip id="veh148" type="veh_passenger" depart="626.28" departLane="best" from="-4608634#5" to="93159680#0"/>
    <trip id="veh149" type="veh_passenger" depart="630.52" departLane="best" from="4315922#1" to="4861308#10"/>
    <trip id="veh150" type="veh_passenger" depart="634.75" departLane="best" from="-145292598#0" to="4313844#6"/>
    <trip id="veh151" type="veh_passenger" depart="638.98" departLane="best" from="-574877223#4" to="68829296#0"/>
    <trip id="veh152" type="veh_passenger" depart="643.21" departLane="best" from="-4315916#2" to="4608634#6"/>
    <trip id="veh153" type="veh_passenger" depart="647.44" departLane="best" from="4315922#1" to="-4319667#1"/>
    <trip id="veh154" type="veh_passenger" depart="651.67" departLane="best" from="-4315795#3" to="296335301"/>
    <trip id="veh155" type="veh_passenger" depart="655.91" departLane="best" from="471285353" to="4345228#0"/>
    <trip id="veh156" type="veh_passenger" depart="660.14" departLane="best" from="4315594#0" to="4315930#0"/>
    <trip id="veh157" type="veh_passenger" depart="664.37" departLane="best" from="193380439" to="-4745120#1"/>
    <trip id="veh158" type="veh_passenger" depart="668.60" departLane="best" from="4315894" to="-431578445"/>
    <trip id="veh159" type="veh_passenger" depart="672.83" departLane="best" from="-145292594#0" to="-4313842"/>
    <trip id="veh160" type="veh_passenger" depart="677.06" departLane="best" from="-563915535#4" to="4608634#6"/>
    <trip id="veh161" type="veh_passenger" depart="681.30" departLane="best" from="822231397" to="-4319765"/>
    <trip id="veh162" type="veh_passenger" depart="685.53" departLane="best" from="37372355#0" to="108842670#0"/>
    <trip id="veh163" type="veh_passenger" depart="689.76" departLane="best" from="-93281811#2" to="3552331#7"/>
    <trip id="veh164" type="veh_passenger" depart="693.99" departLane="best" from="727163717#2" to="3552330#5"/>
    <trip id="veh165" type="veh_passenger" depart="698.22" departLane="best" from="7984549" to="-4319665"/>
    <trip id="veh166" type="veh_passenger" depart="702.45" departLane="best" from="284534473" to="-171255697"/>
    <trip id="veh167" type="veh_passenger" depart="706.69" departLane="best" from="4308355#2" to="-4861308#2"/>
    <trip id="veh168" type="veh_passenger" depart="710.92" departLane="best" from="-98497788#10" to="-3552330#6"/>
    <trip id="veh169" type="veh_passenger" depart="715.15" departLane="best" from="-4315920#0" to="4301896#0"/>
    <trip id="veh170" type="veh_passenger" depart="719.38" departLane="best" from="-1019602231" to="675562343#0"/>
    <trip id="veh171" type="veh_passenger" depart="723.61" departLane="best" from="25662811#0" to="4308332#0"/>
    <trip id="veh172" type="veh_passenger" depart="727.84" departLane="best" from="4313845#5" to="4019346#0"/>
    <trip id="veh173" type="veh_passenger" depart="732.08" departLane="best" from="39020688#0" to="574877223#6"/>
    <trip id="veh174" type="veh_passenger" depart="736.31" departLane="best" from="-4861307" to="4322384#0"/>
    <trip id="veh175" type="veh_passenger" depart="740.54" departLane="best" from="-4308328#0" to="-4608634#9"/>
    <trip id="veh176" type="veh_passenger" depart="744.77" departLane="best" from="106678893" to="-4374865"/>
    <trip id="veh177" type="veh_passenger" depart="749.00" departLane="best" from="357564000#0" to="-145292593#0"/>
    <trip id="veh178" type="veh_passenger" depart="753.23" departLane="best" from="728225664#0" to="4019354#0"/>
    <trip id="veh179" type="veh_passenger" depart="757.47" departLane="best" from="574877223#4" to="37283065#0"/>
    <trip id="veh180" type="veh_passenger" depart="761.70" departLane="best" from="-4608634#2" to="326498370"/>
    <trip id="veh181" type="veh_passenger" depart="765.93" departLane="best" from="-1005325382" to="-4345220#1"/>
    <trip id="veh182" type="veh_passenger" depart="770.16" departLane="best" from="-145292598#3" to="-3552330#9"/>
    <trip id="veh183" type="veh_passenger" depart="774.39" departLane="best" from="39019570#0" to="193994536#4"/>
    <trip id="veh184" type="veh_passenger" depart="778.62" departLane="best" from="177586092#0" to="-4313965#0"/>
    <trip id="veh185" type="veh_passenger" depart="782.86" departLane="best" from="-194089144#1" to="563915535#3"/>
    <trip id="veh186" type="veh_passenger" depart="787.09" departLane="best" from="4315897#0" to="42879142#1"/>
    <trip id="veh187" type="veh_passenger" depart="791.32" departLane="best" from="-37354494#2" to="665176847"/>
    <trip id="veh188" type="veh_passenger" depart="795.55" departLane="best" from="4003185#2" to="-4315784#0"/>
    <trip id="veh189" type="veh_passenger" depart="799.78" departLane="best" from="-4313844#5" to="-145292598#0"/>
    <trip id="veh190" type="veh_passenger" depart="804.01" departLane="best" from="4315798#4" to="194089144#8"/>
    <trip id="veh191" type="veh_passenger" depart="808.25" departLane="best" from="112748673#0" to="37354494#2"/>
    <trip id="veh192" type="veh_passenger" depart="812.48" departLane="best" from="-4313840#3" to="42878548#2"/>
    <trip id="veh193" type="veh_passenger" depart="816.71" departLane="best" from="-203007426#0" to="4315798#8"/>
    <trip id="veh194" type="veh_passenger" depart="820.94" departLane="best" from="39019570#3" to="106678897"/>
    <trip id="veh195" type="veh_passenger" depart="825.17" departLane="best" from="4313900#6" to="431578447"/>
    <trip id="veh196" type="veh_passenger" depart="829.40" departLane="best" from="-273193508#1" to="145292601#0"/>
    <trip id="veh197" type="veh_passenger" depart="833.64" departLane="best" from="-42880953#3" to="-729748506#0"/>
    <trip id="veh198" type="veh_passenger" depart="837.87" departLane="best" from="-4315916#0" to="4322384#1"/>
    <trip id="veh199" type="veh_passenger" depart="842.10" departLane="best" from="186830513" to="-4315919#1"/>
    <trip id="veh200" type="veh_passenger" depart="846.33" departLane="best" from="39020690#1" to="-95210204#1"/>
    <trip id="veh201" type="veh_passenger" depart="850.56" departLane="best" from="37372355#1" to="728225668#0"/>
    <trip id="veh203" type="veh_passenger" depart="859.03" departLane="best" from="4308327#1" to="20343248#0"/>
    <trip id="veh204" type="veh_passenger" depart="863.26" departLane="best" from="4319667#8" to="326498370"/>
    <trip id="veh205" type="veh_passenger" depart="867.49" departLane="best" from="-194089144#10" to="4315927#6"/>
    <trip id="veh206" type="veh_passenger" depart="871.72" departLane="best" from="-4315798#8" to="37354496#9"/>
    <trip id="veh207" type="veh_passenger" depart="875.95" departLane="best" from="-70156730" to="24239293"/>
    <trip id="veh208" type="veh_passenger" depart="880.18" departLane="best" from="-20343248#4" to="4345219"/>
    <trip id="veh209" type="veh_passenger" depart="884.42" departLane="best" from="4319667#5" to="-562882081"/>
    <trip id="veh210" type="veh_passenger" depart="888.65" departLane="best" from="-25663277#1" to="37354486#0"/>
    <trip id="veh211" type="veh_passenger" depart="892.88" departLane="best" from="-42879142#3" to="-194089144#2"/>
    <trip id="veh212" type="veh_passenger" depart="897.11" departLane="best" from="108842671" to="-277904864"/>
    <trip id="veh213" type="veh_passenger" depart="901.34" departLane="best" from="112748680" to="4313900#3"/>
    <trip id="veh214" type="veh_passenger" depart="905.57" departLane="best" from="145292581#0" to="572213301"/>
    <trip id="veh215" type="veh_passenger" depart="909.81" departLane="best" from="357564000#6" to="42878548#1"/>
    <trip id="veh216" type="veh_passenger" depart="914.04" departLane="best" from="4345226#0" to="4315783"/>
    <trip id="veh217" type="veh_passenger" depart="918.27" departLane="best" from="93545877#2" to="106678897"/>
    <trip id="veh218" type="veh_passenger" depart="922.50" departLane="best" from="-69323241#2" to="4313959#8"/>
    <trip id="veh219" type="veh_passenger" depart="926.73" departLane="best" from="4345222#1" to="729158631#0"/>
    <trip id="veh220" type="veh_passenger" depart="930.96" departLane="best" from="13064527#2" to="4313900#4"/>
    <trip id="veh221" type="veh_passenger" depart="935.20" departLane="best" from="26230319#2" to="36996524#2"/>
    <trip id="veh222" type="veh_passenger" depart="939.43" departLane="best" from="-4313970" to="-4315594#0"/>
    <trip id="veh223" type="veh_passenger" depart="943.66" departLane="best" from="-157013473#1" to="145292605#2"/>
    <trip id="veh224" type="veh_passenger" depart="947.89" departLane="best" from="-585972311#0" to="-4067416#0"/>
    <trip id="veh225" type="veh_passenger" depart="952.12" departLane="best" from="108842670#0" to="-41554114#1"/>
    <trip id="veh226" type="veh_passenger" depart="956.35" departLane="best" from="-193802639#1" to="-357564000#14"/>
    <trip id="veh227" type="veh_passenger" depart="960.59" departLane="best" from="37283067#0" to="145292601#0"/>
    <trip id="veh228" type="veh_passenger" depart="964.82" departLane="best" from="-145292601#0" to="382884739#2"/>
    <trip id="veh229" type="veh_passenger" depart="969.05" departLane="best" from="-36996649#3" to="193802639#2"/>
    <trip id="veh230" type="veh_passenger" depart="973.28" departLane="best" from="180484938" to="98497788#0"/>
    <trip id="veh231" type="veh_passenger" depart="977.51" departLane="best" from="-4313900#9" to="-574877223#3"/>
    <trip id="veh232" type="veh_passenger" depart="981.74" departLane="best" from="4315594#0" to="98497788#0"/>
    <trip id="veh233" type="veh_passenger" depart="985.98" departLane="best" from="-4313959#0" to="-4319761#2"/>
    <trip id="veh234" type="veh_passenger" depart="990.21" departLane="best" from="4315919#0" to="22888053#2"/>
    <trip id="veh235" type="veh_passenger" depart="994.44" departLane="best" from="-145292587#0" to="-26230324#0"/>
    <trip id="veh236" type="veh_passenger" depart="998.67" departLane="best" from="99181712#2" to="69641548"/>
    <trip id="veh237" type="veh_passenger" depart="1002.90" departLane="best" from="38696934#0" to="4315794#1"/>
    <trip id="veh238" type="veh_passenger" depart="1007.13" departLane="best" from="3894321#1" to="4313965#0"/>
    <trip id="veh239" type="veh_passenger" depart="1011.37" departLane="best" from="-728225669#1" to="-4313845#4"/>
    <trip id="veh240" type="veh_passenger" depart="1015.60" departLane="best" from="145292587#1" to="-39019570#2"/>
    <trip id="veh241" type="veh_passenger" depart="1019.83" departLane="best" from="-3552331#8" to="4019345#0"/>
    <trip id="veh242" type="veh_passenger" depart="1024.06" departLane="best" from="-3552330#2" to="4313987"/>
    <trip id="veh243" type="veh_passenger" depart="1028.29" departLane="best" from="42878548#1" to="4315784#2"/>
    <trip id="veh244" type="veh_passenger" depart="1032.52" departLane="best" from="4313900#10" to="-3552330#5"/>
    <trip id="veh245" type="veh_passenger" depart="1036.76" departLane="best" from="-4315928#1" to="7984541"/>
    <trip id="veh246" type="veh_passenger" depart="1040.99" departLane="best" from="277904864" to="-145292598#3"/>
    <trip id="veh247" type="veh_passenger" depart="1045.22" departLane="best" from="-4745125" to="4019354#0"/>
    <trip id="veh248" type="veh_passenger" depart="1049.45" departLane="best" from="729748507#1" to="106678893"/>
    <trip id="veh249" type="veh_passenger" depart="1053.68" departLane="best" from="4308324#1" to="20343248#0"/>
    <trip id="veh250" type="veh_passenger" depart="1057.91" departLane="best" from="4081700#1" to="37354486#3"/>
    <trip id="veh251" type="veh_passenger" depart="1062.14" departLane="best" from="-25663302#1" to="-4315787#0"/>
    <trip id="veh252" type="veh_passenger" depart="1066.38" departLane="best" from="-43405817#1" to="36996492#1"/>
    <trip id="veh253" type="veh_passenger" depart="1070.61" departLane="best" from="3552330#8" to="93545877#2"/>