<?xml version="1.0" encoding="UTF-8"?>

<!-- generated on 2023-03-14 14:22:31.529381 by osmWebWizard.py v1_16_0+0000-94ec4c6cd72
<configuration>
    <begin value="0"/>
    <end value="3600"/>
    <fringe-factor value="2"/>
    <fringe-start-attributes value="departSpeed=&quot;max&quot;"/>
    <insertion-density value="6.0"/>
    <max-distance value="8000.0"/>
    <net-file value="C:\Users\rohak.roy\Sumo\2023-03-14-14-22-24\osm.net.xml.gz"/>
    <remove-loops value="True"/>
    <route-file value="C:\Users\rohak.roy\Sumo\2023-03-14-14-22-24\osm.bicycle.rou.xml"/>
    <trip-attributes value="departLane=&quot;best&quot;"/>
    <output-trip-file value="C:\Users\rohak.roy\Sumo\2023-03-14-14-22-24\osm.bicycle.trips.xml"/>
    <prefix value="bike"/>
    <validate value="True"/>
    <vclass value="bicycle"/>
    <vehicle-class value="bicycle"/>
</configuration>
-->

<!-- generated on 2023-03-14 14:22:31 by Eclipse SUMO duarouter Version 1.16.0
<configuration xmlns:xsi="http://www.w3.org/2001/XMLSchema-instance" xsi:noNamespaceSchemaLocation="http://sumo.dlr.de/xsd/duarouterConfiguration.xsd">

    <input>
        <net-file value="C:\Users\rohak.roy\Sumo\2023-03-14-14-22-24\osm.net.xml.gz"/>
        <route-files value="C:\Users\rohak.roy\Sumo\2023-03-14-14-22-24\osm.bicycle.trips.xml"/>
    </input>

    <output>
        <output-file value="C:\Users\rohak.roy\Sumo\2023-03-14-14-22-24\osm.bicycle.trips.xml.tmp"/>
        <alternatives-output value="NUL"/>
        <write-trips value="true"/>
    </output>

    <processing>
        <remove-loops value="true"/>
    </processing>

    <time>
        <begin value="0"/>
        <end value="3600"/>
    </time>

    <report>
        <no-warnings value="true"/>
        <ignore-errors value="true"/>
        <no-step-log value="true"/>
    </report>

</configuration>
-->

<routes xmlns:xsi="http://www.w3.org/2001/XMLSchema-instance" xsi:noNamespaceSchemaLocation="http://sumo.dlr.de/xsd/routes_file.xsd">
    <vType id="bike_bicycle" vClass="bicycle"/>
    <trip id="bike0" type="bike_bicycle" depart="0.00" departLane="best" from="364433548" to="-1124504281#0"/>
    <trip id="bike1" type="bike_bicycle" depart="6.37" departLane="best" from="-4316004#1" to="-4313900#1"/>
    <trip id="bike2" type="bike_bicycle" depart="12.74" departLane="best" from="-4313896#0" to="39019572"/>
    <trip id="bike3" type="bike_bicycle" depart="19.11" departLane="best" from="-629261548#1" to="-220663934"/>
    <trip id="bike4" type="bike_bicycle" depart="25.48" departLane="best" from="-93280992#0" to="123981301#4"/>
    <trip id="bike5" type="bike_bicycle" depart="31.85" departLane="best" from="-4313845#1" to="177586093"/>
    <trip id="bike6" type="bike_bicycle" depart="38.22" departLane="best" from="112748673#0" to="42880953#3"/>
    <trip id="bike7" type="bike_bicycle" depart="44.59" departLane="best" from="-36996649#4" to="-203032223#1"/>
    <trip id="bike8" type="bike_bicycle" depart="50.95" departLane="best" from="4313845#5" to="26588279#0"/>
    <trip id="bike9" type="bike_bicycle" depart="57.32" departLane="best" from="4319761#3" to="1061932516"/>
    <trip id="bike10" type="bike_bicycle" depart="63.69" departLane="best" from="4319668#0" to="409874798"/>
    <trip id="bike11" type="bike_bicycle" depart="70.06" departLane="best" from="572213301" to="-357564000#6"/>
    <trip id="bike12" type="bike_bicycle" depart="76.43" departLane="best" from="80931410" to="559572527"/>
    <trip id="bike13" type="bike_bicycle" depart="82.80" departLane="best" from="22634487#0" to="191322141#1"/>
    <trip id="bike14" type="bike_bicycle" depart="89.17" departLane="best" from="4745121" to="-296335314"/>
    <trip id="bike15" type="bike_bicycle" depart="95.54" departLane="best" from="4319669#1" to="4313840#3"/>
    <trip id="bike16" type="bike_bicycle" depart="101.91" departLane="best" from="194089144#9" to="93280979"/>
    <trip id="bike17" type="bike_bicycle" depart="108.28" departLane="best" from="-69323241#1" to="217597694"/>
    <trip id="bike18" type="bike_bicycle" depart="114.65" departLane="best" from="4374865" to="338884635"/>
    <trip id="bike19" type="bike_bicycle" depart="121.02" departLane="best" departSpeed="max" from="519432809" to="25632176#0"/>
    <trip id="bike20" type="bike_bicycle" depart="127.39" departLane="best" from="426430424#1" to="-145292601#0"/>
    <trip id="bike21" type="bike_bicycle" depart="133.76" departLane="best" from="-4313959#1" to="-4322384#1"/>
    <trip id="bike22" type="bike_bicycle" depart="140.13" departLane="best" from="203032223#0" to="4313970"/>
    <trip id="bike23" type="bike_bicycle" depart="146.49" departLane="best" from="-239478727#1" to="-4319667#7"/>
    <trip id="bike24" type="bike_bicycle" depart="152.86" departLane="best" from="357564000#14" to="665198112"/>
    <trip id="bike25" type="bike_bicycle" depart="159.23" departLane="best" from="-676672309" to="4308336#1"/>
    <trip id="bike26" type="bike_bicycle" depart="165.60" departLane="best" from="4315926#1" to="729158633#0"/>
    <trip id="bike28" type="bike_bicycle" depart="178.34" departLane="best" from="-37354494#4" to="-4313840#2"/>
    <trip id="bike29" type="bike_bicycle" depart="184.71" departLane="best" from="37002027#2" to="-69323248"/>
    <trip id="bike31" type="bike_bicycle" depart="197.45" departLane="best" from="-224639273" to="-400755299"/>
    <trip id="bike32" type="bike_bicycle" depart="203.82" departLane="best" from="463290288#1" to="4315848#0"/>
    <trip id="bike33" type="bike_bicycle" depart="210.19" departLane="best" from="-4313959#5" to="-124117103#0"/>
    <trip id="bike34" type="bike_bicycle" depart="216.56" departLane="best" from="-467313884" to="4315927#5"/>
    <trip id="bike36" type="bike_bicycle" depart="229.30" departLane="best" from="574877223#6" to="-467543974"/>
    <trip id="bike37" type="bike_bicycle" depart="235.66" departLane="best" from="37222933#2" to="-757461957"/>
    <trip id="bike38" type="bike_bicycle" depart="242.03" departLane="best" from="68829296#0" to="106678899"/>
    <trip id="bike39" type="bike_bicycle" depart="248.40" departLane="best" from="-4315920#3" to="-4315792#1"/>
    <trip id="bike40" type="bike_bicycle" depart="254.77" departLane="best" from="22634487#0" to="4315920#1"/>
    <trip id="bike41" type="bike_bicycle" depart="261.14" departLane="best" from="-25662721" to="-654080513"/>
    <trip id="bike42" type="bike_bicycle" depart="267.51" departLane="best" from="770590441" to="-4313845#5"/>
    <trip id="bike43" type="bike_bicycle" depart="273.88" departLane="best" from="98497805" to="177586107#1"/>
    <trip id="bike44" type="bike_bicycle" depart="280.25" departLane="best" from="22633683#0" to="145292605#1"/>
    <trip id="bike45" type="bike_bicycle" depart="286.62" departLane="best" from="-25632250#0" to="3552330#3"/>
    <trip id="bike46" type="bike_bicycle" depart="292.99" departLane="best" from="-4315927#0" to="-93281811#2"/>
    <trip id="bike47" type="bike_bicycle" depart="299.36" departLane="best" from="-191311390#1" to="69641571"/>
    <trip id="bike48" type="bike_bicycle" depart="305.73" departLane="best" from="98497796#4" to="194003838"/>
    <trip id="bike49" type="bike_bicycle" depart="312.10" departLane="best" from="93159680#1" to="487390190"/>
    <trip id="bike50" type="bike_bicycle" depart="318.47" departLane="best" from="108832761" to="-4308331"/>
    <trip id="bike51" type="bike_bicycle" depart="324.84" departLane="best" from="39020690#1" to="471285354#0"/>
    <trip id="bike52" type="bike_bicycle" depart="331.20" departLane="best" from="4315926#1" to="36990479#0"/>
    <trip id="bike54" type="bike_bicycle" depart="343.94" departLane="best" from="1039880341#3" to="7984549"/>
    <trip id="bike55" type="bike_bicycle" depart="350.31" departLane="best" from="574877223#4" to="4315920#2"/>
    <trip id="bike56" type="bike_bicycle" depart="356.68" departLane="best" from="-146712433#0" to="-39020691#0"/>
    <trip id="bike58" type="bike_bicycle" depart="369.42" departLane="best" from="-4345228#0" to="364433548"/>
    <trip id="bike59" type="bike_bicycle" depart="375.79" departLane="best" from="305484327" to="-357564000#1"/>
    <trip id="bike60" type="bike_bicycle" depart="382.16" departLane="best" from="4315789" to="203007426#1"/>
    <trip id="bike61" type="bike_bicycle" depart="388.53" departLane="best" from="4315899#1" to="194089144#1"/>
    <trip id="bike62" type="bike_bicycle" depart="394.90" departLane="best" from="-1005325382" to="4861308#17"/>
    <trip id="bike63" type="bike_bicycle" depart="401.27" departLane="best" from="-109197326#1" to="-727163716"/>
    <trip id="bike64" type="bike_bicycle" depart="407.64" departLane="best" from="575147481" to="-444000964"/>
    <trip id="bike65" type="bike_bicycle" depart="414.01" departLane="best" from="-4608634#3" to="-177586107#1"/>
    <trip id="bike66" type="bike_bicycle" depart="420.38" departLane="best" from="575147477#3" to="758626137"/>
    <trip id="bike67" type="bike_bicycle" depart="426.74" departLane="best" from="-211459603#1" to="-143648515#0"/>
    <trip id="bike68" type="bike_bicycle" depart="433.11" departLane="best" from="-193994536#2" to="4315786#2"/>
    <trip id="bike69" type="bike_bicycle" depart="439.48" departLane="best" from="4315792#1" to="-296335307#2"/>
    <trip id="bike70" type="bike_bicycle" depart="445.85" departLane="best" from="112362884" to="211459601"/>
    <trip id="bike71" type="bike_bicycle" depart="452.22" departLane="best" from="-4315924#0" to="563915535#2"/>
    <trip id="bike72" type="bike_bicycle" depart="458.59" departLane="best" from="93281811#1" to="-4313840#0"/>
    <trip id="bike73" type="bike_bicycle" depart="464.96" departLane="best" from="202761559" to="-4313841"/>
    <trip id="bike74" type="bike_bicycle" depart="471.33" departLane="best" from="4301893#0" to="-463290286#1"/>
    <trip id="bike75" type="bike_bicycle" depart="477.70" departLane="best" from="-98497796#0" to="36996687#1"/>
    <trip id="bike76" type="bike_bicycle" depart="484.07" departLane="best" from="-980070373" to="188001747#0"/>
    <trip id="bike77" type="bike_bicycle" depart="490.44" departLane="best" from="-284534473" to="-4313900#4"/>
    <trip id="bike78" type="bike_bicycle" depart="496.81" departLane="best" from="-562882081" to="26230319#2"/>
    <trip id="bike79" type="bike_bicycle" depart="503.18" departLane="best" from="-4313959#7" to="-4313896#0"/>
    <trip id="bike80" type="bike_bicycle" depart="509.55" departLane="best" from="-193994549#1" to="3552331#4"/>
    <trip id="bike81" type="bike_bicycle" depart="515.91" departLane="best" from="-4313959#3" to="665198112"/>
    <trip id="bike82" type="bike_bicycle" depart="522.28" departLane="best" from="-493982088" to="-193994549#1"/>
    <trip id="bike83" type="bike_bicycle" depart="528.65" departLane="best" from="-4315779#0" to="37354496#9"/>
    <trip id="bike84" type="bike_bicycle" depart="535.02" departLane="best" from="-4313840#3" to="299382185#1"/>
    <trip id="bike85" type="bike_bicycle" depart="541.39" departLane="best" from="729158631#2" to="-24239292#1"/>
    <trip id="bike86" type="bike_bicycle" depart="547.76" departLane="best" from="-109995386#0" to="4315919#2"/>
    <trip id="bike87" type="bike_bicycle" depart="554.13" departLane="best" from="-656100889" to="-409874801"/>
    <trip id="bike88" type="bike_bicycle" depart="560.50" departLane="best" from="-22888053#5" to="95436532"/>
    <trip id="bike89" type="bike_bicycle" depart="566.87" departLane="best" from="-93281811#2" to="1091051222#1"/>
    <trip id="bike90" type="bike_bicycle" depart="573.24" departLane="best" from="4313840#2" to="3894321#1"/>
    <trip id="bike91" type="bike_bicycle" depart="579.61" departLane="best" from="95210204#0" to="238180191#0"/>
    <trip id="bike92" type="bike_bicycle" depart="585.98" departLane="best" from="788672817" to="-572213301"/>
    <trip id="bike93" type="bike_bicycle" depart="592.35" departLane="best" from="-519432800" to="-4315795#1"/>
    <trip id="bike94" type="bike_bicycle" depart="598.72" departLane="best" from="-4081703#0" to="1019602232#0"/>
    <trip id="bike95" type="bike_bicycle" depart="605.09" departLane="best" from="-93280992#0" to="-4319668#0"/>
    <trip id="bike96" type="bike_bicycle" depart="611.45" departLane="best" from="4315795#1" to="69641571"/>
    <trip id="bike97" type="bike_bicycle" depart="617.82" departLane="best" from="98497796#7" to="487390192"/>
    <trip id="bike98" type="bike_bicycle" depart="624.19" departLane="best" from="203035035#9" to="-157013473#5"/>
    <trip id="bike99" type="bike_bicycle" depart="630.56" departLane="best" from="99181712#1" to="4608634#3"/>
    <trip id="bike100" type="bike_bicycle" depart="636.93" departLane="best" from="-93114288#0" to="70451530"/>
    <!-- <trip id="bike101" type="bike_bicycle" depart="643.30" departLane="best" from="4745124#1" to="37354486#1"/>
    <trip id="bike102" type="bike_bicycle" depart="649.67" departLane="best" from="13064527#1" to="-4313841"/>
    <trip id="bike103" type="bike_bicycle" depart="656.04" departLane="best" from="784449674#1" to="-179090969#0"/>
    <trip id="bike104" type="bike_bicycle" depart="662.41" departLane="best" from="69323241#2" to="95210205"/>
    <trip id="bike105" type="bike_bicycle" depart="668.78" departLane="best" from="-4315924#0" to="4315919#0"/>
    <trip id="bike106" type="bike_bicycle" depart="675.15" departLane="best" from="104058439#0" to="-93545871"/>
    <trip id="bike107" type="bike_bicycle" depart="681.52" departLane="best" from="80931410" to="-98497796#2"/>
    <trip id="bike108" type="bike_bicycle" depart="687.89" departLane="best" from="220662987#1" to="4308328#0"/>
    <trip id="bike109" type="bike_bicycle" depart="694.26" departLane="best" from="357564000#12" to="-4345226#3"/>
    <trip id="bike110" type="bike_bicycle" depart="700.63" departLane="best" from="-93114288#0" to="-25632250#1"/>
    <trip id="bike111" type="bike_bicycle" depart="706.99" departLane="best" from="203016833" to="4313965#3"/>
    <trip id="bike112" type="bike_bicycle" depart="713.36" departLane="best" from="-177586096#1" to="-25663302#1"/>
    <trip id="bike113" type="bike_bicycle" depart="719.73" departLane="best" from="-157013473#5" to="481124802"/>
    <trip id="bike114" type="bike_bicycle" depart="726.10" departLane="best" from="-357564000#8" to="-8384186"/>
    <trip id="bike115" type="bike_bicycle" depart="732.47" departLane="best" from="203032223#1" to="-4081699#2"/>
    <trip id="bike116" type="bike_bicycle" depart="738.84" departLane="best" from="284534473" to="-39019570#2"/>
    <trip id="bike117" type="bike_bicycle" depart="745.21" departLane="best" from="4315594#0" to="-284534473"/>
    <trip id="bike118" type="bike_bicycle" depart="751.58" departLane="best" from="629259318#0" to="-4315792#0"/>
    <trip id="bike119" type="bike_bicycle" depart="757.95" departLane="best" from="-284531805" to="-345780632"/>
    <trip id="bike120" type="bike_bicycle" depart="764.32" departLane="best" from="-93159684" to="-25662811#3"/>
    <trip id="bike121" type="bike_bicycle" depart="770.69" departLane="best" from="193380440" to="728225668#0"/>
    <trip id="bike122" type="bike_bicycle" depart="777.06" departLane="best" from="4308326#1" to="4308326#3"/>
    <trip id="bike124" type="bike_bicycle" depart="789.80" departLane="best" from="382884739#2" to="-4374865"/>
    <trip id="bike125" type="bike_bicycle" depart="796.16" departLane="best" from="467543998" to="4315750#1"/>
    <trip id="bike127" type="bike_bicycle" depart="808.90" departLane="best" from="98497812#1" to="98497796#4"/>
    <trip id="bike128" type="bike_bicycle" depart="815.27" departLane="best" from="-194089144#1" to="-4313840#3"/>
    <trip id="bike129" type="bike_bicycle" depart="821.64" departLane="best" from="-4315924#0" to="728225665#1"/>
    <trip id="bike130" type="bike_bicycle" depart="828.01" departLane="best" from="3552330#3" to="574880508"/>
    <trip id="bike131" type="bike_bicycle" depart="834.38" departLane="best" from="676672302" to="36972459#0"/>
    <trip id="bike132" type="bike_bicycle" depart="840.75" departLane="best" from="-451623010" to="-22888053#1"/>
    <trip id="bike134" type="bike_bicycle" depart="853.49" departLane="best" from="37031480#0" to="-106678895"/>
    <trip id="bike136" type="bike_bicycle" depart="866.23" departLane="best" from="-37354494#1" to="729748506#2"/>
    <trip id="bike138" type="bike_bicycle" depart="878.97" departLane="best" from="-25632164#0" to="728225661"/>
    <trip id="bike139" type="bike_bicycle" depart="885.34" departLane="best" from="-4315932#1" to="-299382184"/>
    <trip id="bike140" type="bike_bicycle" depart="891.70" departLane="best" from="-4308326#5" to="-4308326#2"/>
    <trip id="bike141" type="bike_bicycle" depart="898.07" departLane="best" from="357564000#0" to="4315924#0"/>
    <trip id="bike142" type="bike_bicycle" depart="904.44" departLane="best" from="143648522#1" to="665198112"/>
    <trip id="bike143" type="bike_bicycle" depart="910.81" departLane="best" from="202761559" to="-22634488"/>
    <trip id="bike144" type="bike_bicycle" depart="917.18" departLane="best" from="93281811#2" to="-4319667#4"/>
    <trip id="bike145" type="bike_bicycle" depart="923.55" departLane="best" from="-1026516206#1" to="-4315795#5"/>
    <trip id="bike146" type="bike_bicycle" depart="929.92" departLane="best" from="357564000#6" to="-4315919#4"/>
    <trip id="bike147" type="bike_bicycle" depart="936.29" departLane="best" from="4313900#3" to="211459605"/>
    <trip id="bike148" type="bike_bicycle" depart="942.66" departLane="best" from="-93769440#0" to="-1067398662"/>
    <trip id="bike149" type="bike_bicycle" depart="949.03" departLane="best" from="-194089144#5" to="577572369"/>
    <trip id="bike150" type="bike_bicycle" depart="955.40" departLane="best" from="-665198093" to="-203035035#1"/>
    <trip id="bike151" type="bike_bicycle" depart="961.77" departLane="best" from="-4608634#2" to="-25662811#0"/>
    <trip id="bike152" type="bike_bicycle" depart="968.14" departLane="best" from="-3552330#5" to="-296335307#0"/>
    <trip id="bike153" type="bike_bicycle" depart="974.51" departLane="best" from="-4608634#6" to="-656343873"/>
    <trip id="bike154" type="bike_bicycle" depart="980.88" departLane="best" from="4315930#1" to="487390190"/>
    <trip id="bike155" type="bike_bicycle" depart="987.24" departLane="best" from="657433791#0" to="4311393#0"/>
    <trip id="bike156" type="bike_bicycle" depart="993.61" departLane="best" from="-4315795#1" to="-24239327"/>
    <trip id="bike157" type="bike_bicycle" depart="999.98" departLane="best" from="4315899#4" to="582375455#1"/>
    <trip id="bike158" type="bike_bicycle" depart="1006.35" departLane="best" from="-80931396" to="3511958#0"/>
    <trip id="bike159" type="bike_bicycle" depart="1012.72" departLane="best" from="357564000#11" to="727163717#1"/>
    <trip id="bike160" type="bike_bicycle" depart="1019.09" departLane="best" from="-539908449#1" to="-93281811#2"/>
    <trip id="bike161" type="bike_bicycle" depart="1025.46" departLane="best" from="4319763#3" to="575147488"/>
    <trip id="bike162" type="bike_bicycle" depart="1031.83" departLane="best" from="-1124504281#0" to="4313896#0"/>
    <trip id="bike163" type="bike_bicycle" depart="1038.20" departLane="best" from="539908449#0" to="727163717#3"/>
    <trip id="bike164" type="bike_bicycle" depart="1044.57" departLane="best" from="4319665" to="538382700"/>
    <trip id="bike165" type="bike_bicycle" depart="1050.94" departLane="best" from="4319763#3" to="4315927#1"/>
    <trip id="bike166" type="bike_bicycle" depart="1057.31" departLane="best" from="4315921#0" to="-25632248#0"/>
    <trip id="bike167" type="bike_bicycle" depart="1063.68" departLane="best" from="-298450695" to="4861308#6"/>
    <trip id="bike168" type="bike_bicycle" depart="1070.05" departLane="best" from="4313896#3" to="4322378#1"/>
    <trip id="bike169" type="bike_bicycle" depart="1076.41" departLane="best" from="-106678901#0" to="451623011"/>
    <trip id="bike170" type="bike_bicycle" depart="1082.78" departLane="best" from="4315928#1" to="4313959#3"/>
    <trip id="bike171" type="bike_bicycle" depart="1089.15" departLane="best" from="-1122880989#1" to="-41554114#1"/>
    <trip id="bike172" type="bike_bicycle" depart="1095.52" departLane="best" from="-487390192" to="-538382709"/>
    <trip id="bike173" type="bike_bicycle" depart="1101.89" departLane="best" from="89079691#2" to="-4319668#2"/>
    <trip id="bike174" type="bike_bicycle" depart="1108.26" departLane="best" from="36990479#0" to="-784449674#1"/>
    <trip id="bike176" type="bike_bicycle" depart="1121.00" departLane="best" from="729748512" to="-26230319#1"/>
    <trip id="bike177" type="bike_bicycle" depart="1127.37" departLane="best" from="42879139" to="-39020691#0"/>
    <trip id="bike178" type="bike_bicycle" depart="1133.74" departLane="best" from="884668413" to="-4315926#0"/>
    <trip id="bike179" type="bike_bicycle" depart="1140.11" departLane="best" from="25632176#1" to="-97649847"/>
    <trip id="bike180" type="bike_bicycle" depart="1146.48" departLane="best" from="4313840#1" to="-463854247"/>
    <trip id="bike181" type="bike_bicycle" depart="1152.85" departLane="best" from="-577572370" to="-179090969#1"/>
    <trip id="bike182" type="bike_bicycle" depart="1159.22" departLane="best" from="-70501556" to="-25632164#0"/>
    <trip id="bike183" type="bike_bicycle" depart="1165.59" departLane="best" from="-4315799#0" to="42879142#4"/>
    <trip id="bike184" type="bike_bicycle" depart="1171.95" departLane="best" from="1019602231" to="70451398"/>
    <trip id="bike185" type="bike_bicycle" depart="1178.32" departLane="best" from="202755224#0" to="4308328#3"/>
    <trip id="bike186" type="bike_bicycle" depart="1184.69" departLane="best" from="-4313900#5" to="382884739#1"/>
    <trip id="bike187" type="bike_bicycle" depart="1191.06" departLane="best" from="665198066#0" to="-193994536#4"/>
    <trip id="bike188" type="bike_bicycle" depart="1197.43" departLane="best" from="-37354494#3" to="-538382709"/>
    <trip id="bike189" type="bike_bicycle" depart="1203.80" departLane="best" from="463290288#1" to="-4745120#0"/>
    <trip id="bike190" type="bike_bicycle" depart="1210.17" departLane="best" from="4308328#2" to="-439782792"/>
    <trip id="bike191" type="bike_bicycle" depart="1216.54" departLane="best" from="-4608634#9" to="-81641119"/>
    <trip id="bike192" type="bike_bicycle" depart="1222.91" departLane="best" from="-788455442" to="-4345226#1"/>
    <trip id="bike193" type="bike_bicycle" depart="1229.28" departLane="best" from="296335306#2" to="93280990#1"/>
    <trip id="bike194" type="bike_bicycle" depart="1235.65" departLane="best" from="-730317886" to="39020683#0"/>
    <trip id="bike195" type="bike_bicycle" depart="1242.02" departLane="best" from="665198066#0" to="-326498368"/>
    <trip id="bike196" type="bike_bicycle" depart="1248.39" departLane="best" from="-4374865" to="203035035#9"/>
    <trip id="bike197" type="bike_bicycle" depart="1254.76" departLane="best" from="-1005306099" to="4320671#3"/>
    <trip id="bike198" type="bike_bicycle" depart="1261.13" departLane="best" from="-93769442#3" to="25662319#0"/>
    <trip id="bike199" type="bike_bicycle" depart="1267.49" departLane="best" from="37222932#1" to="108842671"/>
    <trip id="bike200" type="bike_bicycle" depart="1273.86" departLane="best" from="-98497796#2" to="-4313841"/>
    <trip id="bike201" type="bike_bicycle" depart="1280.23" departLane="best" from="109995386#1" to="657436458"/>
    <trip id="bike202" type="bike_bicycle" depart="1286.60" departLane="best" from="4315930#0" to="37354494#3"/>
    <trip id="bike203" type="bike_bicycle" depart="1292.97" departLane="best" from="-211459602#0" to="186830510#0"/>
    <trip id="bike204" type="bike_bicycle" depart="1299.34" departLane="best" from="-3552331#7" to="555525607"/>
    <trip id="bike205" type="bike_bicycle" depart="1305.71" departLane="best" from="4322383#1" to="4315594#1"/>
    <trip id="bike206" type="bike_bicycle" depart="1312.08" departLane="best" from="38696932" to="-4313900#4"/>
    <trip id="bike207" type="bike_bicycle" depart="1318.45" departLane="best" from="-42879143" to="-112362887"/>
    <trip id="bike208" type="bike_bicycle" depart="1324.82" departLane="best" from="-4315790" to="1124504281#0"/>
    <trip id="bike209" type="bike_bicycle" depart="1331.19" departLane="best" from="4745128#0" to="729748506#2"/>
    <trip id="bike210" type="bike_bicycle" depart="1337.56" departLane="best" from="-885482091" to="3552331#0"/>
    <trip id="bike211" type="bike_bicycle" depart="1343.93" departLane="best" from="-420900900" to="-4081700#1"/>
    <trip id="bike212" type="bike_bicycle" depart="1350.30" departLane="best" from="145292593#1" to="-4315791#0"/>
    <trip id="bike213" type="bike_bicycle" depart="1356.66" departLane="best" from="37283065#0" to="105648327#3"/>
    <trip id="bike214" type="bike_bicycle" depart="1363.03" departLane="best" from="-4315750#0" to="-4315795#2"/>
    <trip id="bike215" type="bike_bicycle" depart="1369.40" departLane="best" from="-25629260" to="-93545877#4"/>
    <trip id="bike216" type="bike_bicycle" depart="1375.77" departLane="best" from="-382888999#1" to="80931410"/>
    <trip id="bike217" type="bike_bicycle" depart="1382.14" departLane="best" from="186830510#1" to="-157013473#4"/>
    <trip id="bike218" type="bike_bicycle" depart="1388.51" departLane="best" from="-4315795#0" to="-4745120#1"/>
    <trip id="bike219" type="bike_bicycle" depart="1394.88" departLane="best" from="-105648329" to="4316005"/>
    <trip id="bike220" type="bike_bicycle" depart="1401.25" departLane="best" from="-37354496#4" to="97379217#1"/>
    <trip id="bike221" type="bike_bicycle" depart="1407.62" departLane="best" from="-284534477#0" to="-784449674#0"/>
    <trip id="bike223" type="bike_bicycle" depart="1420.36" departLane="best" from="4308328#1" to="177586090#1"/>
    <trip id="bike224" type="bike_bicycle" depart="1426.73" departLane="best" from="444000964" to="-203035035#9"/>
    <trip id="bike226" type="bike_bicycle" depart="1439.47" departLane="best" from="-1122880989#0" to="4315916#2"/>
    <trip id="bike227" type="bike_bicycle" depart="1445.84" departLane="best" from="-4315792#0" to="357564000#9"/>
    <trip id="bike228" type="bike_bicycle" depart="1452.20" departLane="best" from="4315792#1" to="193802634#0"/>
    <trip id="bike229" type="bike_bicycle" depart="1458.57" departLane="best" from="3512236" to="-4316005"/>
    <trip id="bike230" type="bike_bicycle" depart="1464.94" departLane="best" from="194944265" to="4320671#0"/>
    <trip id="bike231" type="bike_bicycle" depart="1471.31" departLane="best" from="-4315932#0" to="480953062"/>
    <trip id="bike233" type="bike_bicycle" depart="1484.05" departLane="best" from="-4313965#1" to="4081699#2"/>
    <trip id="bike234" type="bike_bicycle" depart="1490.42" departLane="best" from="42878550" to="-193380439"/>
    <trip id="bike235" type="bike_bicycle" depart="1496.79" departLane="best" from="-80931407#1" to="203025717"/>
    <trip id="bike236" type="bike_bicycle" depart="1503.16" departLane="best" from="-889077896" to="-4308328#2"/>
    <trip id="bike237" type="bike_bicycle" depart="1509.53" departLane="best" from="-93280979" to="665198093"/>
    <trip id="bike238" type="bike_bicycle" depart="1515.90" departLane="best" from="-437362801" to="-4081699#5"/>
    <trip id="bike239" type="bike_bicycle" depart="1522.27" departLane="best" from="4861308#2" to="-4315792#0"/>
    <trip id="bike240" type="bike_bicycle" depart="1528.64" departLane="best" from="69323248" to="105648336"/>
    <trip id="bike241" type="bike_bicycle" depart="1535.01" departLane="best" from="-616253348" to="4315779#0"/>
    <trip id="bike242" type="bike_bicycle" depart="1541.38" departLane="best" departSpeed="max" from="48570552" to="-7984542"/>
    <trip id="bike243" type="bike_bicycle" depart="1547.74" departLane="best" from="-93159682" to="4313965#2"/>
    <trip id="bike244" type="bike_bicycle" depart="1554.11" departLane="best" from="203026158#0" to="296335312"/>
    <trip id="bike245" type="bike_bicycle" depart="1560.48" departLane="best" from="-4313845#5" to="-4313845#5"/>
    <trip id="bike246" type="bike_bicycle" depart="1566.85" departLane="best" from="97649847" to="123981301#1"/>
    <trip id="bike247" type="bike_bicycle" depart="1573.22" departLane="best" from="-555525607" to="39020685"/>
    <trip id="bike248" type="bike_bicycle" depart="1579.59" departLane="best" from="7984549" to="37354484#3"/>
    <trip id="bike249" type="bike_bicycle" depart="1585.96" departLane="best" from="-1091051221#2" to="296335307#0"/>
    <trip id="bike250" type="bike_bicycle" depart="1592.33" departLane="best" from="-4315900#1" to="1134512310"/>
    <trip id="bike252" type="bike_bicycle" depart="1605.07" departLane="best" from="-1134512310" to="36990559#1"/>
    <trip id="bike254" type="bike_bicycle" depart="1617.81" departLane="best" from="-157013473#4" to="-69323246"/>
    <trip id="bike255" type="bike_bicycle" depart="1624.18" departLane="best" from="-4311393#1" to="-4861308#9"/>
    <trip id="bike256" type="bike_bicycle" depart="1630.55" departLane="best" from="4315787#1" to="-69323248"/>
    <trip id="bike257" type="bike_bicycle" depart="1636.92" departLane="best" from="4315750#2" to="-444200858"/>
    <trip id="bike258" type="bike_bicycle" depart="1643.28" departLane="best" from="-4315798#2" to="203035035#7"/>
    <trip id="bike259" type="bike_bicycle" depart="1649.65" departLane="best" from="-109197326#1" to="203007426#1"/>
    <trip id="bike260" type="bike_bicycle" depart="1656.02" departLane="best" from="99181712#2" to="-616187629"/>
    <trip id="bike261" type="bike_bicycle" depart="1662.39" departLane="best" from="36996649#4" to="4315915"/>
    <trip id="bike262" type="bike_bicycle" depart="1668.76" departLane="best" from="37002027#0" to="-4315781#0"/>