<?xml version="1.0" encoding="UTF-8"?>

<!-- generated on 2023-03-14 14:22:36.685965 by osmWebWizard.py v1_16_0+0000-94ec4c6cd72
<configuration>
    <begin value="0"/>
    <end value="3600"/>
    <fringe-factor value="5"/>
    <fringe-start-attributes value="departSpeed=&quot;max&quot;"/>
    <insertion-density value="8.0"/>
    <min-distance.fringe value="10.0"/>
    <min-distance value="600.0"/>
    <net-file value="C:\Users\rohak.roy\Sumo\2023-03-14-14-22-24\osm.net.xml.gz"/>
    <remove-loops value="True"/>
    <route-file value="C:\Users\rohak.roy\Sumo\2023-03-14-14-22-24\osm.truck.rou.xml"/>
    <trip-attributes value="departLane=&quot;best&quot;"/>
    <output-trip-file value="C:\Users\rohak.roy\Sumo\2023-03-14-14-22-24\osm.truck.trips.xml"/>
    <prefix value="truck"/>
    <validate value="True"/>
    <vclass value="truck"/>
    <vehicle-class value="truck"/>
</configuration>
-->

<!-- generated on 2023-03-14 14:22:36 by Eclipse SUMO duarouter Version 1.16.0
<configuration xmlns:xsi="http://www.w3.org/2001/XMLSchema-instance" xsi:noNamespaceSchemaLocation="http://sumo.dlr.de/xsd/duarouterConfiguration.xsd">

    <input>
        <net-file value="C:\Users\rohak.roy\Sumo\2023-03-14-14-22-24\osm.net.xml.gz"/>
        <route-files value="C:\Users\rohak.roy\Sumo\2023-03-14-14-22-24\osm.truck.trips.xml"/>
    </input>

    <output>
        <output-file value="C:\Users\rohak.roy\Sumo\2023-03-14-14-22-24\osm.truck.trips.xml.tmp"/>
        <alternatives-output value="NUL"/>
        <write-trips value="true"/>
    </output>

    <processing>
        <remove-loops value="true"/>
    </processing>

    <time>
        <begin value="0"/>
        <end value="3600"/>
    </time>

    <report>
        <no-warnings value="true"/>
        <ignore-errors value="true"/>
        <no-step-log value="true"/>
    </report>

</configuration>
-->

<routes xmlns:xsi="http://www.w3.org/2001/XMLSchema-instance" xsi:noNamespaceSchemaLocation="http://sumo.dlr.de/xsd/routes_file.xsd">
    <vType id="truck_truck" vClass="truck"/>
    <trip id="truck0" type="truck_truck" depart="0.00" departLane="best" from="382889005" to="-145292593#1"/>
    <trip id="truck1" type="truck_truck" depart="6.35" departLane="best" from="-4315927#6" to="-4313965#6"/>
    <trip id="truck2" type="truck_truck" depart="12.69" departLane="best" from="-4313900#5" to="-422095172"/>
    <trip id="truck3" type="truck_truck" depart="19.04" departLane="best" from="54490306" to="-24239292#1"/>
    <trip id="truck4" type="truck_truck" depart="25.39" departLane="best" from="-106678895" to="145292598#4"/>
    <trip id="truck5" type="truck_truck" depart="31.74" departLane="best" from="-145292594#1" to="-4313844#2"/>
    <trip id="truck6" type="truck_truck" depart="38.08" departLane="best" from="-4313959#5" to="-357564000#7"/>
    <trip id="truck7" type="truck_truck" depart="44.43" departLane="best" from="-4861308#8" to="-4067416#0"/>
    <trip id="truck8" type="truck_truck" depart="50.78" departLane="best" from="7984542" to="-4861308#9"/>
    <trip id="truck9" type="truck_truck" depart="57.13" departLane="best" from="4322383#0" to="-36996649#4"/>
    <trip id="truck10" type="truck_truck" depart="63.47" departLane="best" from="4315924#1" to="4313896#2"/>
    <trip id="truck11" type="truck_truck" depart="69.82" departLane="best" from="-728225669#1" to="-284547871"/>
    <trip id="truck12" type="truck_truck" depart="76.17" departLane="best" from="4345228#2" to="3552330#7"/>
    <trip id="truck13" type="truck_truck" depart="82.52" departLane="best" from="4308329#1" to="177586096#1"/>
    <trip id="truck14" type="truck_truck" depart="88.86" departLane="best" from="-4313987" to="4319763#0"/>
    <trip id="truck15" type="truck_truck" depart="95.21" departLane="best" from="-20343248#4" to="-4315784#1"/>
    <trip id="truck16" type="truck_truck" depart="101.56" departLane="best" from="25663302#1" to="-4315934"/>
    <trip id="truck17" type="truck_truck" depart="107.91" departLane="best" from="69323248" to="-4313900#0"/>
    <trip id="truck18" type="truck_truck" depart="114.25" departLane="best" from="-4315920#1" to="-69323246"/>
    <trip id="truck19" type="truck_truck" depart="120.60" departLane="best" from="-42879140" to="4313896#1"/>
    <trip id="truck20" type="truck_truck" depart="126.95" departLane="best" from="-98497788#4" to="3894322#2"/>
    <trip id="truck21" type="truck_truck" depart="133.30" departLane="best" from="273193508#1" to="42879142#4"/>
    <trip id="truck22" type="truck_truck" depart="139.64" departLane="best" from="4321081#0" to="-4315795#0"/>
    <trip id="truck23" type="truck_truck" depart="145.99" departLane="best" from="4315594#0" to="145292605#1"/>
    <trip id="truck24" type="truck_truck" depart="152.34" departLane="best" from="-4313896#5" to="727163717#0"/>
    <trip id="truck25" type="truck_truck" depart="158.69" departLane="best" from="471285354#1" to="-4608634#1"/>
    <trip id="truck26" type="truck_truck" depart="165.03" departLane="best" from="4003185#1" to="93769444#1"/>
    <trip id="truck28" type="truck_truck" depart="177.73" departLane="best" from="-93545877#4" to="-4313959#8"/>
    <trip id="truck29" type="truck_truck" depart="184.08" departLane="best" from="4315899#3" to="109196963#3"/>
    <trip id="truck30" type="truck_truck" depart="190.42" departLane="best" from="-194089144#0" to="80931407#0"/>
    <trip id="truck31" type="truck_truck" depart="196.77" departLane="best" from="-98497800#1" to="-24239327"/>
    <trip id="truck32" type="truck_truck" depart="203.12" departLane="best" from="25632164#3" to="4345226#2"/>
    <trip id="truck33" type="truck_truck" depart="209.47" departLane="best" from="-109995386#1" to="4313844#1"/>
    <trip id="truck34" type="truck_truck" depart="215.81" departLane="best" from="-4315920#1" to="-39019570#0"/>
    <trip id="truck35" type="truck_truck" depart="222.16" departLane="best" from="3552330#3" to="145292581#3"/>
    <trip id="truck36" type="truck_truck" depart="228.51" departLane="best" from="-145292605#3" to="729748505#1"/>
    <trip id="truck37" type="truck_truck" depart="234.86" departLane="best" from="202761559" to="4315920#1"/>
    <trip id="truck38" type="truck_truck" depart="241.20" departLane="best" from="202755223" to="-4308324#1"/>
    <trip id="truck39" type="truck_truck" depart="247.55" departLane="best" from="651817261#1" to="4608634#8"/>
    <trip id="truck40" type="truck_truck" depart="253.90" departLane="best" from="-4319765" to="38696934#0"/>
    <trip id="truck41" type="truck_truck" depart="260.25" departLane="best" from="37002027#2" to="-39020691#1"/>
    <trip id="truck42" type="truck_truck" depart="266.59" departLane="best" from="4315786#0" to="-25662811#0"/>
    <trip id="truck43" type="truck_truck" depart="272.94" departLane="best" from="4315795#3" to="-24359993#1"/>
    <trip id="truck44" type="truck_truck" depart="279.29" departLane="best" from="-1005325382" to="-4745120#1"/>
    <trip id="truck45" type="truck_truck" depart="285.64" departLane="best" from="-145292581#2" to="-68829295#0"/>
    <trip id="truck46" type="truck_truck" depart="291.98" departLane="best" from="4745124#0" to="-4319761#0"/>
    <trip id="truck47" type="truck_truck" depart="298.33" departLane="best" from="-22888053#5" to="193994549#0"/>
    <trip id="truck48" type="truck_truck" depart="304.68" departLane="best" from="4315788#0" to="-36996649#2"/>
    <trip id="truck49" type="truck_truck" depart="311.03" departLane="best" from="186830510#1" to="273193508#1"/>
    <trip id="truck50" type="truck_truck" depart="317.37" departLane="best" from="-4315919#3" to="4609270#1"/>
    <trip id="truck51" type="truck_truck" depart="323.72" departLane="best" from="-106678899" to="4313900#3"/>
    <trip id="truck52" type="truck_truck" depart="330.07" departLane="best" from="25632164#0" to="4313896#2"/>
    <trip id="truck53" type="truck_truck" depart="336.42" departLane="best" from="4313844#2" to="-4345228#2"/>
    <trip id="truck54" type="truck_truck" depart="342.76" departLane="best" from="98497800#0" to="39020690#0"/>
    <trip id="truck55" type="truck_truck" depart="349.11" departLane="best" from="145292581#0" to="-22633684"/>
    <trip id="truck56" type="truck_truck" depart="355.46" departLane="best" from="357564000#0" to="4313987"/>
    <trip id="truck57" type="truck_truck" depart="361.81" departLane="best" from="-4861308#5" to="-357564000#6"/>
    <trip id="truck58" type="truck_truck" depart="368.15" departLane="best" from="-4315750#0" to="4313965#0"/>
    <trip id="truck59" type="truck_truck" depart="374.50" departLane="best" from="4315594#0" to="572213301"/>
    <trip id="truck60" type="truck_truck" depart="380.85" departLane="best" from="-4345226#3" to="203007426#1"/>
    <trip id="truck61" type="truck_truck" depart="387.20" departLane="best" from="431578444" to="4081699#5"/>
    <trip id="truck62" type="truck_truck" depart="393.54" departLane="best" from="69990576#1" to="3527220"/>
    <trip id="truck63" type="truck_truck" depart="399.89" departLane="best" from="179090971" to="4315798#9"/>
    <trip id="truck65" type="truck_truck" depart="412.59" departLane="best" from="4313896#2" to="-41554114#0"/>
    <trip id="truck66" type="truck_truck" depart="418.93" departLane="best" from="-93769444#1" to="-25662811#3"/>
    <trip id="truck68" type="truck_truck" depart="431.63" departLane="best" from="4345228#2" to="-4315795#3"/>
    <trip id="truck69" type="truck_truck" depart="437.98" departLane="best" from="-4308329#1" to="145292605#3"/>
    <trip id="truck70" type="truck_truck" depart="444.32" departLane="best" from="-4315795#0" to="-670195723"/>
    <trip id="truck71" type="truck_truck" depart="450.67" departLane="best" from="261464009#1" to="-180484938"/>
    <trip id="truck72" type="truck_truck" depart="457.02" departLane="best" from="99181712#1" to="4319764#0"/>
    <trip id="truck73" type="truck_truck" depart="463.37" departLane="best" from="4322384#0" to="-420900902"/>
    <trip id="truck74" type="truck_truck" depart="469.71" departLane="best" from="193802638" to="-4313900#6"/>
    <trip id="truck75" type="truck_truck" depart="476.06" departLane="best" from="95210204#0" to="193994536#1"/>
    <trip id="truck76" type="truck_truck" depart="482.41" departLane="best" from="-146712433#1" to="109196963#4"/>
    <trip id="truck77" type="truck_truck" depart="488.76" departLane="best" from="26588279#1" to="-4313841"/>
    <trip id="truck78" type="truck_truck" depart="495.10" departLane="best" from="39020691#1" to="4320671#2"/>
    <trip id="truck79" type="truck_truck" depart="501.45" departLane="best" departSpeed="max" from="89079691#0" to="3552331#1"/>
    <trip id="truck80" type="truck_truck" depart="507.80" departLane="best" from="-25632248#1" to="4313970"/>
    <trip id="truck81" type="truck_truck" depart="514.15" departLane="best" from="-193802639#1" to="-357564000#0"/>
    <trip id="truck82" type="truck_truck" depart="520.49" departLane="best" from="4067416#0" to="7984541"/>
    <trip id="truck83" type="truck_truck" depart="526.84" departLane="best" from="22633683#0" to="4308328#2"/>
    <trip id="truck84" type="truck_truck" depart="533.19" departLane="best" from="36990479#1" to="-420900900"/>
    <trip id="truck85" type="truck_truck" depart="539.54" departLane="best" from="4315784#0" to="-357564000#0"/>
    <trip id="truck86" type="truck_truck" depart="545.88" departLane="best" from="4861308#8" to="4315793#2"/>
    <trip id="truck87" type="truck_truck" depart="552.23" departLane="best" from="1041419770#2" to="3552331#9"/>
    <trip id="truck88" type="truck_truck" depart="558.58" departLane="best" from="22633683#0" to="69323241#2"/>
    <trip id="truck89" type="truck_truck" depart="564.93" departLane="best" from="-4345233" to="4315752#0"/>
    <trip id="truck90" type="truck_truck" depart="571.27" departLane="best" from="203032223#0" to="-4313900#5"/>
    <trip id="truck91" type="truck_truck" depart="577.62" departLane="best" from="-4315919#3" to="689769011"/>
    <trip id="truck92" type="truck_truck" depart="583.97" departLane="best" from="69323246" to="-4081699#1"/>
    <trip id="truck93" type="truck_truck" depart="590.32" departLane="best" from="37031480#1" to="98497788#0"/>
    <trip id="truck94" type="truck_truck" depart="596.66" departLane="best" from="39020691#1" to="109196963#0"/>
    <trip id="truck95" type="truck_truck" depart="603.01" departLane="best" from="4315932#0" to="-4322384#1"/>
    <trip id="truck96" type="truck_truck" depart="609.36" departLane="best" from="4019424#1" to="69990575"/>
    <trip id="truck97" type="truck_truck" depart="615.71" departLane="best" from="-4315927#1" to="36996687#1"/>
    <trip id="truck98" type="truck_truck" depart="622.05" departLane="best" from="193994536#0" to="572213300"/>
    <trip id="truck99" type="truck_truck" depart="628.40" departLane="best" from="1026676682" to="4315792#1"/>
    <trip id="truck100" type="truck_truck" depart="634.75" departLane="best" from="382884739#1" to="4315919#3"/>
    <!-- <trip id="truck101" type="truck_truck" depart="641.10" departLane="best" from="4313959#6" to="-284534473"/>
    <trip id="truck102" type="truck_truck" depart="647.44" departLane="best" from="203035035#3" to="-4745130"/>
    <trip id="truck103" type="truck_truck" depart="653.79" departLane="best" from="575147481" to="26230315#0"/>
    <trip id="truck104" type="truck_truck" depart="660.14" departLane="best" from="-4319763#0" to="3552331#8"/>
    <trip id="truck105" type="truck_truck" depart="666.49" departLane="best" from="-109196963#1" to="4345226#2"/>
    <trip id="truck106" type="truck_truck" depart="672.83" departLane="best" from="-4315795#0" to="-26230319#2"/>
    <trip id="truck107" type="truck_truck" depart="679.18" departLane="best" from="-4315798#0" to="477381734"/>
    <trip id="truck108" type="truck_truck" depart="685.53" departLane="best" from="-98497788#5" to="37354486#2"/>
    <trip id="truck109" type="truck_truck" depart="691.88" departLane="best" from="39020691#1" to="68829295#1"/>
    <trip id="truck110" type="truck_truck" depart="698.22" departLane="best" from="4608634#1" to="93280992#0"/>
    <trip id="truck111" type="truck_truck" depart="704.57" departLane="best" from="-4315927#1" to="-4745125"/>
    <trip id="truck112" type="truck_truck" depart="710.92" departLane="best" from="-145292593#0" to="4313900#5"/>
    <trip id="truck113" type="truck_truck" depart="717.27" departLane="best" from="-477381734" to="-68829296#0"/>
    <trip id="truck114" type="truck_truck" depart="723.61" departLane="best" from="-4315920#3" to="4345233"/>
    <trip id="truck115" type="truck_truck" depart="729.96" departLane="best" from="4315848#1" to="-284547871"/>
    <trip id="truck117" type="truck_truck" depart="742.66" departLane="best" from="171255693#0" to="4345222#2"/>
    <trip id="truck118" type="truck_truck" depart="749.00" departLane="best" from="-4315916#2" to="4315750#0"/>
    <trip id="truck119" type="truck_truck" depart="755.35" departLane="best" from="145292587#3" to="-4313840#0"/>
    <trip id="truck120" type="truck_truck" depart="761.70" departLane="best" from="4745120#1" to="-4345235"/>
    <trip id="truck121" type="truck_truck" depart="768.05" departLane="best" departSpeed="max" from="89079691#0" to="-4319665"/>
    <trip id="truck122" type="truck_truck" depart="774.39" departLane="best" from="3894322#2" to="98497788#3"/>
    <trip id="truck123" type="truck_truck" depart="780.74" departLane="best" from="93545877#2" to="25632250#0"/>
    <trip id="truck124" type="truck_truck" depart="787.09" departLane="best" from="727163717#0" to="3552331#2"/>
    <trip id="truck125" type="truck_truck" depart="793.43" departLane="best" from="284534473" to="145292581#3"/>
    <trip id="truck126" type="truck_truck" depart="799.78" departLane="best" from="4313896#1" to="-445249020"/>
    <trip id="truck127" type="truck_truck" depart="806.13" departLane="best" from="8086412" to="3552330#6"/>
    <trip id="truck128" type="truck_truck" depart="812.48" departLane="best" from="-1005578772#1" to="4301896#0"/>
    <trip id="truck129" type="truck_truck" depart="818.82" departLane="best" from="24396140" to="4313843"/>
    <trip id="truck130" type="truck_truck" depart="825.17" departLane="best" from="689761978#0" to="-203007426#0"/>
    <trip id="truck131" type="truck_truck" depart="831.52" departLane="best" from="4067416#1" to="-4861308#10"/>
    <trip id="truck132" type="truck_truck" depart="837.87" departLane="best" from="-4345226#4" to="4322381#3"/>
    <trip id="truck133" type="truck_truck" depart="844.21" departLane="best" from="4313844#0" to="43405817#0"/>
    <trip id="truck134" type="truck_truck" depart="850.56" departLane="best" from="357564000#9" to="108842671"/>
    <trip id="truck135" type="truck_truck" depart="856.91" departLane="best" from="727163717#2" to="426430424#0"/>
    <trip id="truck136" type="truck_truck" depart="863.26" departLane="best" from="1005325382" to="4319670"/>
    <trip id="truck137" type="truck_truck" depart="869.60" departLane="best" from="109995386#0" to="3552331#4"/>
    <trip id="truck138" type="truck_truck" depart="875.95" departLane="best" from="145292587#0" to="4313900#6"/>
    <trip id="truck140" type="truck_truck" depart="888.65" departLane="best" from="-109196963#1" to="42879142#1"/>
    <trip id="truck141" type="truck_truck" depart="894.99" departLane="best" from="-22888053#4" to="22633682"/>
    <trip id="truck142" type="truck_truck" depart="901.34" departLane="best" from="-4315932#2" to="4315750#2"/>
    <trip id="truck143" type="truck_truck" depart="907.69" departLane="best" from="-4313843" to="-145292593#0"/>
    <trip id="truck144" type="truck_truck" depart="914.04" departLane="best" from="-43405817#0" to="-203032223#1"/>
    <trip id="truck145" type="truck_truck" depart="920.38" departLane="best" from="-1019602231" to="37354496#4"/>
    <trip id="truck146" type="truck_truck" depart="926.73" departLane="best" from="4003185#2" to="106678895"/>
    <trip id="truck147" type="truck_truck" depart="933.08" departLane="best" from="-42880953#3" to="75137117#1"/>
    <trip id="truck148" type="truck_truck" depart="939.43" departLane="best" from="-4315793#2" to="4322381#3"/>
    <trip id="truck149" type="truck_truck" depart="945.77" departLane="best" from="4067417#3" to="98497788#10"/>
    <trip id="truck150" type="truck_truck" depart="952.12" departLane="best" from="36990479#1" to="728225669#0"/>
    <trip id="truck151" type="truck_truck" depart="958.47" departLane="best" from="4313843" to="203025721"/>
    <trip id="truck152" type="truck_truck" depart="964.82" departLane="best" from="4319669#1" to="-26230324#1"/>
    <trip id="truck153" type="truck_truck" depart="971.16" departLane="best" from="-563915535#0" to="4313965#1"/>
    <trip id="truck154" type="truck_truck" depart="977.51" departLane="best" from="186830510#0" to="-4315918#1"/>
    <trip id="truck155" type="truck_truck" depart="983.86" departLane="best" from="4315792#1" to="382889005"/>
    <trip id="truck156" type="truck_truck" depart="990.21" departLane="best" from="4315788#0" to="22663249"/>
    <trip id="truck157" type="truck_truck" depart="996.55" departLane="best" from="-4315927#0" to="4313896#6"/>
    <trip id="truck158" type="truck_truck" depart="1002.90" departLane="best" from="25632176#0" to="37354494#0"/>
    <trip id="truck159" type="truck_truck" depart="1009.25" departLane="best" from="4315750#2" to="4308326#0"/>
    <trip id="truck160" type="truck_truck" depart="1015.60" departLane="best" from="4308332#1" to="194089144#2"/>
    <trip id="truck161" type="truck_truck" depart="1021.94" departLane="best" from="1026676682" to="-4313896#2"/>
    <trip id="truck162" type="truck_truck" depart="1028.29" departLane="best" from="4345223" to="-4315788#0"/>
    <trip id="truck163" type="truck_truck" depart="1034.64" departLane="best" from="-75137117#0" to="106678897"/>
    <trip id="truck164" type="truck_truck" depart="1040.99" departLane="best" from="-585972311#0" to="4315779#0"/>
    <trip id="truck165" type="truck_truck" depart="1047.33" departLane="best" from="-4345222#0" to="729748505#1"/>
    <trip id="truck166" type="truck_truck" depart="1053.68" departLane="best" from="1039880342#1" to="4313970"/>
    <trip id="truck167" type="truck_truck" depart="1060.03" departLane="best" from="25662811#0" to="36996649#3"/>
    <trip id="truck168" type="truck_truck" depart="1066.38" departLane="best" from="-13064527#0" to="-145292598#3"/>
    <trip id="truck169" type="truck_truck" depart="1072.72" departLane="best" from="-4861308#16" to="42878548#2"/>
    <trip id="truck170" type="truck_truck" depart="1079.07" departLane="best" from="-177586096#0" to="36996649#0"/>
    <trip id="truck171" type="truck_truck" depart="1085.42" departLane="best" from="-37354486#2" to="-145292598#0"/>
    <trip id="truck172" type="truck_truck" depart="1091.77" departLane="best" from="-93281811#1" to="3512235#10"/>
    <trip id="truck173" type="truck_truck" depart="1098.11" departLane="best" from="-145292598#0" to="-39019570#2"/>
    <trip id="truck174" type="truck_truck" depart="1104.46" departLane="best" from="-37354484#4" to="177586096#0"/>
    <trip id="truck175" type="truck_truck" depart="1110.81" departLane="best" from="179090969#3" to="-7984542"/>
    <trip id="truck176" type="truck_truck" depart="1117.16" departLane="best" from="-4313897" to="4745127"/>
    <trip id="truck177" type="truck_truck" depart="1123.50" departLane="best" from="-431578447" to="-7984542"/>
    <trip id="truck178" type="truck_truck" depart="1129.85" departLane="best" from="-4315752#0" to="-4319761#0"/>
    <trip id="truck179" type="truck_truck" depart="1136.20" departLane="best" from="145292581#2" to="-25662811#0"/>
    <trip id="truck180" type="truck_truck" depart="1142.55" departLane="best" from="99181712#2" to="651817264"/>
    <trip id="truck181" type="truck_truck" depart="1148.89" departLane="best" from="39020688#0" to="4315798#4"/>
    <trip id="truck182" type="truck_truck" depart="1155.24" departLane="best" from="39020690#0" to="-4315781#0"/>
    <trip id="truck183" type="truck_truck" depart="1161.59" departLane="best" from="729748505#1" to="-4313844#3"/>
    <trip id="truck184" type="truck_truck" depart="1167.94" departLane="best" from="145292581#4" to="-39020691#0"/>
    <trip id="truck185" type="truck_truck" depart="1174.28" departLane="best" from="357564000#7" to="4081699#5"/>
    <trip id="truck186" type="truck_truck" depart="1180.63" departLane="best" from="-4315900#1" to="4313959#6"/>
    <trip id="truck187" type="truck_truck" depart="1186.98" departLane="best" from="4308326#5" to="4315789"/>
    <trip id="truck188" type="truck_truck" depart="1193.33" departLane="best" from="420900900" to="37002027#1"/>
    <trip id="truck189" type="truck_truck" depart="1199.67" departLane="best" from="-4313970" to="3552331#1"/>
    <trip id="truck190" type="truck_truck" depart="1206.02" departLane="best" from="277904864" to="-145292594#0"/>
    <trip id="truck191" type="truck_truck" depart="1212.37" departLane="best" from="-4345226#1" to="426430424#0"/>
    <trip id="truck192" type="truck_truck" depart="1218.72" departLane="best" from="-4311393#3" to="-203035035#7"/>
    <trip id="truck193" type="truck_truck" depart="1225.06" departLane="best" from="42880959#1" to="37354495#1"/>
    <trip id="truck194" type="truck_truck" depart="1231.41" departLane="best" from="-43405817#1" to="36996524#1"/>
    <trip id="truck195" type="truck_truck" depart="1237.76" departLane="best" from="357564000#0" to="93769444#1"/>
    <trip id="truck196" type="truck_truck" depart="1244.11" departLane="best" from="-203007426#2" to="563915535#2"/>
    <trip id="truck197" type="truck_truck" depart="1250.45" departLane="best" from="-43405817#0" to="4319665"/>
    <trip id="truck198" type="truck_truck" depart="1256.80" departLane="best" from="-26230324#1" to="7984541"/>
    <trip id="truck199" type="truck_truck" depart="1263.15" departLane="best" from="4308332#2" to="145292581#4"/>
    <trip id="truck200" type="truck_truck" depart="1269.50" departLane="best" from="4313900#10" to="815885858#1"/>
    <trip id="truck201" type="truck_truck" depart="1275.84" departLane="best" from="-13064527#0" to="4313896#5"/>
    <trip id="truck202" type="truck_truck" depart="1282.19" departLane="best" from="4319669#1" to="-24239292#1"/>
    <trip id="truck203" type="truck_truck" depart="1288.54" departLane="best" from="4745130" to="-4315792#0"/>
    <trip id="truck204" type="truck_truck" depart="1294.89" departLane="best" from="-729748506#0" to="-145292598#3"/>
    <trip id="truck205" type="truck_truck" depart="1301.23" departLane="best" from="-43405817#2" to="4308326#4"/>
    <trip id="truck206" type="truck_truck" depart="1307.58" departLane="best" from="-4313900#0" to="4315919#2"/>
    <trip id="truck207" type="truck_truck" depart="1313.93" departLane="best" from="4308327#1" to="4315932#1"/>
    <trip id="truck208" type="truck_truck" depart="1320.28" departLane="best" from="22888053#5" to="-4313844#0"/>
    <trip id="truck209" type="truck_truck" depart="1326.62" departLane="best" from="193994536#0" to="4315784#2"/>
    <trip id="truck210" type="truck_truck" depart="1332.97" departLane="best" from="-42880959#0" to="39020683#1"/>
    <trip id="truck211" type="truck_truck" depart="1339.32" departLane="best" from="193994536#3" to="4315900#1"/>
    <trip id="truck212" type="truck_truck" depart="1345.67" departLane="best" from="-25632164#0" to="4313965#3"/>
    <trip id="truck213" type="truck_truck" depart="1352.01" departLane="best" from="4301893#0" to="-4345222#4"/>
    <trip id="truck214" type="truck_truck" depart="1358.36" departLane="best" from="-3552331#9" to="191311390#0"/>
    <trip id="truck215" type="truck_truck" depart="1364.71" departLane="best" from="-4308328#2" to="4315927#5"/>
    <trip id="truck216" type="truck_truck" depart="1371.06" departLane="best" from="-4315795#2" to="-357564000#1"/>
    <trip id="truck218" type="truck_truck" depart="1383.75" departLane="best" from="24239327" to="-4315785"/>
    <trip id="truck219" type="truck_truck" depart="1390.10" departLane="best" from="-4308326#5" to="4313959#2"/>
    <trip id="truck220" type="truck_truck" depart="1396.45" departLane="best" from="193802636#2" to="4313845#1"/>
    <trip id="truck221" type="truck_truck" depart="1402.79" departLane="best" from="-93280992#1" to="238180184#0"/>
    <trip id="truck222" type="truck_truck" depart="1409.14" departLane="best" from="-4311393#2" to="4315750#0"/>
    <trip id="truck223" type="truck_truck" depart="1415.49" departLane="best" from="-4301894#0" to="123981301#2"/>
    <trip id="truck224" type="truck_truck" depart="1421.84" departLane="best" from="-461464742" to="3552330#2"/>
    <trip id="truck225" type="truck_truck" depart="1428.18" departLane="best" from="-193802634#0" to="-39019570#0"/>
    <trip id="truck226" type="truck_truck" depart="1434.53" departLane="best" from="180484939" to="4345222#0"/>
    <trip id="truck227" type="truck_truck" depart="1440.88" departLane="best" from="-98497796#4" to="3552331#8"/>
    <trip id="truck228" type="truck_truck" depart="1447.23" departLane="best" from="4315787#0" to="37002027#0"/>
    <trip id="truck229" type="truck_truck" depart="1453.57" departLane="best" from="22633683#0" to="157013473#0"/>
    <trip id="truck230" type="truck_truck" depart="1459.92" departLane="best" from="-98497788#5" to="-4345222#2"/>
    <trip id="truck231" type="truck_truck" depart="1466.27" departLane="best" from="-42879142#5" to="-203035035#4"/>
    <trip id="truck232" type="truck_truck" depart="1472.62" departLane="best" from="4315750#2" to="4308336#1"/>
    <trip id="truck233" type="truck_truck" depart="1478.96" departLane="best" from="-42879142#5" to="-670197217"/>
    <trip id="truck234" type="truck_truck" depart="1485.31" departLane="best" from="4315894" to="37354494#3"/>
    <trip id="truck235" type="truck_truck" depart="1491.66" departLane="best" from="4019352#3" to="69323241#0"/>
    <trip id="truck236" type="truck_truck" depart="1498.01" departLane="best" from="4315594#0" to="3512235#7"/>
    <trip id="truck237" type="truck_truck" depart="1504.35" departLane="best" from="42879143" to="4308328#1"/>
    <trip id="truck238" type="truck_truck" depart="1510.70" departLane="best" from="194089144#10" to="-22633684"/>
    <trip id="truck239" type="truck_truck" depart="1517.05" departLane="best" from="-4608634#8" to="4315798#9"/>
    <trip id="truck240" type="truck_truck" depart="1523.40" departLane="best" from="24359993#1" to="-7984549"/>
    <trip id="truck241" type="truck_truck" depart="1529.74" departLane="best" from="729748506#0" to="815885858#1"/>
    <trip id="truck242" type="truck_truck" depart="1536.09" departLane="best" from="171255693#0" to="4315783"/>
    <trip id="truck243" type="truck_truck" depart="1542.44" departLane="best" from="177708321#1" to="-39020691#0"/>
    <trip id="truck245" type="truck_truck" depart="1555.13" departLane="best" from="357564000#2" to="382884739#0"/>
    <trip id="truck246" type="truck_truck" depart="1561.48" departLane="best" from="-574877223#1" to="-4861308#2"/>
    <trip id="truck247" type="truck_truck" depart="1567.83" departLane="best" from="4745124#1" to="-4308324#1"/>
    <trip id="truck248" type="truck_truck" depart="1574.17" departLane="best" from="4319668#0" to="727163717#3"/>
    <trip id="truck249" type="truck_truck" depart="1580.52" departLane="best" from="-4315927#7" to="277904862"/>
    <trip id="truck250" type="truck_truck" depart="1586.87" departLane="best" from="-146712433#0" to="-4608634#1"/>
    <trip id="truck251" type="truck_truck" depart="1593.22" departLane="best" from="-461021559#0" to="89079691#2"/>
    <trip id="truck252" type="truck_truck" depart="1599.56" departLane="best" from="-98497788#2" to="20343248#4"/>
    <trip id="truck253" type="truck_truck" depart="1605.91" departLane="best" from="-98497788#2" to="4019350#0"/>