<?xml version="1.0" encoding="UTF-8"?>

<!-- generated on 2023-03-22 14:41:10 by Eclipse SUMO sumo Version 1.16.0
-->

<configuration xmlns:xsi="http://www.w3.org/2001/XMLSchema-instance" xsi:noNamespaceSchemaLocation="http://sumo.dlr.de/xsd/sumoConfiguration.xsd">

    <input>
        <net-file value="myJunction.net.xml"/>
        <route-files value="myJunction.rou.xml"/>
        <additional-files value="myJunction.add.xml"/>
    </input>

</configuration>
