<?xml version="1.0" encoding="UTF-8"?>

<!-- generated on 2023-03-17 15:44:42 by Eclipse SUMO netedit Version 1.16.0
<configuration xmlns:xsi="http://www.w3.org/2001/XMLSchema-instance" xsi:noNamespaceSchemaLocation="http://sumo.dlr.de/xsd/netconvertConfiguration.xsd">

    <input>
        <sumo-net-file value="C:\Users\rohak.roy\Sumo\sumolympics\sumolympics.net.xml"/>
    </input>

    <output>
        <output-file value="C:\Users\rohak.roy\Sumo\sumolympics\sumolympics.net.xml"/>
    </output>

    <processing>
        <geometry.min-radius.fix.railways value="false"/>
        <geometry.max-grade.fix value="false"/>
        <offset.disable-normalization value="true"/>
        <lefthand value="0"/>
    </processing>

    <junctions>
        <no-turnarounds value="true"/>
        <junctions.corner-detail value="5"/>
        <junctions.limit-turn-speed value="5.50"/>
        <rectangular-lane-cut value="0"/>
    </junctions>

    <pedestrian>
        <walkingareas value="0"/>
    </pedestrian>

</configuration>
-->

<net version="1.16" junctionCornerDetail="5" limitTurnSpeed="5.50" xmlns:xsi="http://www.w3.org/2001/XMLSchema-instance" xsi:noNamespaceSchemaLocation="http://sumo.dlr.de/xsd/net_file.xsd">

    <location netOffset="0.00,0.00" convBoundary="0.00,0.00,1000.00,0.00" origBoundary="-10000000000.00,-10000000000.00,10000000000.00,10000000000.00" projParameter="!"/>

    <edge id=":2_0" function="internal">
        <lane id=":2_0_0" index="0" allow="bicycle" speed="13.89" length="0.10" width="2.10" shape="900.00,-12.65 900.00,-12.65"/>
        <lane id=":2_0_1" index="1" allow="pedestrian" speed="13.89" length="0.10" width="2.00" shape="900.00,-10.60 900.00,-10.60"/>
        <lane id=":2_0_2" index="2" allow="bus" speed="13.89" length="0.10" shape="900.00,-8.00 900.00,-8.00"/>
        <lane id=":2_0_3" index="3" allow="passenger" speed="13.89" length="0.10" shape="900.00,-4.80 900.00,-4.80"/>
        <lane id=":2_0_4" index="4" allow="rail_urban" speed="13.89" length="0.10" shape="900.00,-1.60 900.00,-1.60"/>
    </edge>

    <edge id="beg" from="1" to="2" priority="-1">
        <lane id="beg_0" index="0" allow="bicycle" speed="13.89" length="900.00" width="2.10" shape="0.00,-12.65 900.00,-12.65"/>
        <lane id="beg_1" index="1" allow="pedestrian" speed="13.89" length="900.00" width="2.00" shape="0.00,-10.60 900.00,-10.60"/>
        <lane id="beg_2" index="2" allow="bus" speed="13.89" length="900.00" shape="0.00,-8.00 900.00,-8.00"/>
        <lane id="beg_3" index="3" allow="passenger" speed="13.89" length="900.00" shape="0.00,-4.80 900.00,-4.80"/>
        <lane id="beg_4" index="4" allow="rail_urban" speed="13.89" length="900.00" shape="0.00,-1.60 900.00,-1.60"/>
    </edge>
    <edge id="end" from="2" to="3" priority="-1">
        <lane id="end_0" index="0" allow="bicycle" speed="13.89" length="100.00" width="2.10" shape="900.00,-12.65 1000.00,-12.65"/>
        <lane id="end_1" index="1" allow="pedestrian" speed="13.89" length="100.00" width="2.00" shape="900.00,-10.60 1000.00,-10.60"/>
        <lane id="end_2" index="2" allow="bus" speed="13.89" length="100.00" shape="900.00,-8.00 1000.00,-8.00"/>
        <lane id="end_3" index="3" allow="passenger" speed="13.89" length="100.00" shape="900.00,-4.80 1000.00,-4.80"/>
        <lane id="end_4" index="4" allow="rail_urban" speed="13.89" length="100.00" shape="900.00,-1.60 1000.00,-1.60"/>
    </edge>

    <tlLogic id="2" type="static" programID="0" offset="0">
        <phase duration="100" state="rrrrr"/>
        <phase duration="1000" state="GGGGG"/>
        <phase duration="5"  state="rrrrr"/>
    </tlLogic>

    <junction id="1" type="dead_end" x="0.00" y="0.00" incLanes="" intLanes="" shape="0.00,0.00 0.00,-13.70"/>
    <junction id="2" type="traffic_light" x="900.00" y="0.00" incLanes="beg_0 beg_1 beg_2 beg_3 beg_4" intLanes=":2_0_0 :2_0_1 :2_0_2 :2_0_3 :2_0_4" shape="900.00,0.00 900.00,-13.70 900.00,0.00">
        <request index="0" response="00000" foes="00000" cont="0"/>
        <request index="1" response="00000" foes="00000" cont="0"/>
        <request index="2" response="00000" foes="00000" cont="0"/>
        <request index="3" response="00000" foes="00000" cont="0"/>
        <request index="4" response="00000" foes="00000" cont="0"/>
    </junction>
    <junction id="3" type="dead_end" x="1000.00" y="0.00" incLanes="end_0 end_1 end_2 end_3 end_4" intLanes="" shape="1000.00,-13.70 1000.00,0.00"/>

    <connection from="beg" to="end" fromLane="0" toLane="0" via=":2_0_0" tl="2" linkIndex="0" dir="s" state="O"/>
    <connection from="beg" to="end" fromLane="1" toLane="1" via=":2_0_1" tl="2" linkIndex="1" dir="s" state="O"/>
    <connection from="beg" to="end" fromLane="2" toLane="2" via=":2_0_2" tl="2" linkIndex="2" dir="s" state="O"/>
    <connection from="beg" to="end" fromLane="3" toLane="3" via=":2_0_3" tl="2" linkIndex="3" dir="s" state="O"/>
    <connection from="beg" to="end" fromLane="4" toLane="4" via=":2_0_4" tl="2" linkIndex="4" dir="s" state="O"/>

    <connection from=":2_0" to="end" fromLane="0" toLane="0" dir="s" state="M"/>
    <connection from=":2_0" to="end" fromLane="1" toLane="1" dir="s" state="M"/>
    <connection from=":2_0" to="end" fromLane="2" toLane="2" dir="s" state="M"/>
    <connection from=":2_0" to="end" fromLane="3" toLane="3" dir="s" state="M"/>
    <connection from=":2_0" to="end" fromLane="4" toLane="4" dir="s" state="M"/>

</net>
