<?xml version="1.0" encoding="UTF-8"?>

<!-- generated on 2023-03-17 16:25:16 by Eclipse SUMO sumo Version 1.16.0
-->

<configuration xmlns:xsi="http://www.w3.org/2001/XMLSchema-instance" xsi:noNamespaceSchemaLocation="http://sumo.dlr.de/xsd/sumoConfiguration.xsd">

    <input>
        <net-file value="autobahn.net.xml"/>
       <route-files value="autobahn.rou.xml"/>
    </input>

</configuration>
