<?xml version="1.0" encoding="UTF-8"?>

<!-- generated on 2023-03-22 11:50:06 by Eclipse SUMO netedit Version 1.16.0
-->

<additional xmlns:xsi="http://www.w3.org/2001/XMLSchema-instance" xsi:noNamespaceSchemaLocation="http://sumo.dlr.de/xsd/additional_file.xsd">
    <!-- StoppingPlaces -->
    <busStop id="bs_0" lane="-E0_1" startPos="157.74" endPos="167.74"/>
    <busStop id="bs_1" lane="E0_1" startPos="13.51" endPos="23.51"/>
    <busStop id="bs_2" lane="E2_1" startPos="12.73" endPos="22.73"/>
    <busStop id="bs_3" lane="-E2_1" startPos="161.19" endPos="171.19"/>
    <busStop id="ts_1" lane="E4_1" startPos="6.94" endPos="16.94"/>
    <busStop id="ts_2" lane="E4_1" startPos="159.24" endPos="169.24"/>
    <busStop id="ts_3" lane="-E4_1" startPos="17.18" endPos="27.18"/>
    <busStop id="ts_4" lane="-E4_1" startPos="165.38" endPos="175.38"/>
</additional>
