<?xml version="1.0" encoding="UTF-8"?>

<!-- generated on 2023-03-22 11:48:51 by Eclipse SUMO netedit Version 1.16.0
<configuration xmlns:xsi="http://www.w3.org/2001/XMLSchema-instance" xsi:noNamespaceSchemaLocation="http://sumo.dlr.de/xsd/netconvertConfiguration.xsd">

    <input>
        <additional-files value="C:\Users\rohak.roy\Sumo\publicTransport\publicTransport.add.xml"/>
        <sumo-net-file value="C:\Users\rohak.roy\Sumo\publicTransport\publicTransport.net.xml"/>
    </input>

    <output>
        <output-file value="C:\Users\rohak.roy\Sumo\publicTransport\publicTransport.net.xml"/>
    </output>

    <processing>
        <geometry.min-radius.fix.railways value="false"/>
        <geometry.max-grade.fix value="false"/>
        <offset.disable-normalization value="true"/>
        <lefthand value="0"/>
    </processing>

    <junctions>
        <no-turnarounds value="true"/>
        <junctions.corner-detail value="5"/>
        <junctions.limit-turn-speed value="5.50"/>
        <rectangular-lane-cut value="0"/>
    </junctions>

    <pedestrian>
        <walkingareas value="0"/>
    </pedestrian>

</configuration>
-->

<net version="1.16" junctionCornerDetail="5" limitTurnSpeed="5.50" xmlns:xsi="http://www.w3.org/2001/XMLSchema-instance" xsi:noNamespaceSchemaLocation="http://sumo.dlr.de/xsd/net_file.xsd">

    <location netOffset="0.00,0.00" convBoundary="0.00,-100.00,200.00,0.00" origBoundary="-10000000000.00,-10000000000.00,10000000000.00,10000000000.00" projParameter="!"/>

    <edge id=":J0_0" function="internal">
        <lane id=":J0_0_0" index="0" disallow="pedestrian" speed="11.49" length="30.37" shape="23.53,1.60 12.53,0.88 4.68,-1.28 -0.03,-4.88 -1.60,-9.91"/>
    </edge>
    <edge id=":J0_1" function="internal">
        <lane id=":J0_1_0" index="0" allow="tram rail_urban rail rail_electric rail_fast" speed="6.91" length="19.05" shape="23.53,1.60 18.79,-0.03 16.43,-3.88 16.82,-8.38 20.33,-11.95"/>
    </edge>
    <edge id=":J0_2" function="internal">
        <lane id=":J0_2_0" index="0" allow="tram rail_urban rail rail_electric rail_fast" speed="7.31" length="18.42" shape="21.76,-9.09 16.25,-5.81 14.71,-3.47 17.14,-2.07 23.53,-1.60"/>
    </edge>
    <edge id=":J0_3" function="internal">
        <lane id=":J0_3_0" index="0" allow="tram rail_urban rail rail_electric rail_fast" speed="10.65" length="28.21" shape="21.76,-9.09 13.21,-5.30 5.72,-3.42 0.42,-4.57 -1.60,-9.91"/>
    </edge>
    <edge id=":J0_4" function="internal">
        <lane id=":J0_4_0" index="0" allow="tram rail_urban rail rail_electric rail_fast" speed="8.42" length="21.44" shape="1.60,-9.91 2.77,-7.29 6.28,-6.76 12.13,-8.31 20.33,-11.95"/>
    </edge>
    <edge id=":J0_5" function="internal">
        <lane id=":J0_5_0" index="0" disallow="pedestrian" speed="10.54" length="25.39" shape="1.60,-9.91 2.97,-6.28 7.08,-3.68 13.93,-2.12 23.53,-1.60"/>
    </edge>
    <edge id=":J1_0" function="internal">
        <lane id=":J1_0_0" index="0" disallow="pedestrian" speed="7.10" length="10.97" shape="201.60,-5.20 201.18,-2.22 199.90,-0.10 197.77,1.17 194.80,1.60"/>
    </edge>
    <edge id=":J1_1" function="internal">
        <lane id=":J1_1_0" index="0" disallow="pedestrian" speed="5.37" length="5.81" shape="194.80,-1.60 196.38,-1.82 197.50,-2.50 198.18,-3.62 198.40,-5.20"/>
    </edge>
    <edge id=":J2_0" function="internal">
        <lane id=":J2_0_0" index="0" allow="tram rail_urban rail rail_electric rail_fast" speed="8.42" length="21.44" shape="198.40,-90.09 197.23,-92.71 193.72,-93.24 187.87,-91.69 179.67,-88.05"/>
    </edge>
    <edge id=":J2_1" function="internal">
        <lane id=":J2_1_0" index="0" disallow="pedestrian" speed="10.54" length="25.39" shape="198.40,-90.09 197.03,-93.72 192.92,-96.32 186.07,-97.88 176.47,-98.40"/>
    </edge>
    <edge id=":J2_2" function="internal">
        <lane id=":J2_2_0" index="0" disallow="pedestrian" speed="11.49" length="30.37" shape="176.47,-101.60 187.47,-100.88 195.32,-98.72 200.03,-95.12 201.60,-90.09"/>
    </edge>
    <edge id=":J2_3" function="internal">
        <lane id=":J2_3_0" index="0" allow="tram rail_urban rail rail_electric rail_fast" speed="6.91" length="19.05" shape="176.47,-101.60 181.21,-99.97 183.57,-96.12 183.18,-91.62 179.67,-88.05"/>
    </edge>
    <edge id=":J2_4" function="internal">
        <lane id=":J2_4_0" index="0" allow="tram rail_urban rail rail_electric rail_fast" speed="7.31" length="18.42" shape="178.24,-90.91 183.75,-94.19 185.29,-96.53 182.86,-97.93 176.47,-98.40"/>
    </edge>
    <edge id=":J2_5" function="internal">
        <lane id=":J2_5_0" index="0" allow="tram rail_urban rail rail_electric rail_fast" speed="10.65" length="28.21" shape="178.24,-90.91 186.79,-94.70 194.28,-96.58 199.58,-95.43 201.60,-90.09"/>
    </edge>
    <edge id=":J3_0" function="internal">
        <lane id=":J3_0_0" index="0" disallow="pedestrian" speed="7.10" length="10.97" shape="-1.60,-94.80 -1.17,-97.77 0.10,-99.90 2.23,-101.17 5.20,-101.60"/>
    </edge>
    <edge id=":J3_1" function="internal">
        <lane id=":J3_1_0" index="0" disallow="pedestrian" speed="5.37" length="5.81" shape="5.20,-98.40 3.62,-98.17 2.50,-97.50 1.82,-96.38 1.60,-94.80"/>
    </edge>

    <edge id="-E0" from="J1" to="J0" priority="-1">
        <lane id="-E0_0" index="0" allow="pedestrian" speed="13.89" length="171.27" width="2.00" shape="194.80,4.20 23.53,4.20"/>
        <lane id="-E0_1" index="1" disallow="pedestrian" speed="13.89" length="171.27" shape="194.80,1.60 23.53,1.60"/>
    </edge>
    <edge id="-E1" from="J2" to="J1" priority="-1">
        <lane id="-E1_0" index="0" allow="pedestrian" speed="13.89" length="84.89" width="2.00" shape="204.20,-90.09 204.20,-5.20"/>
        <lane id="-E1_1" index="1" disallow="pedestrian" speed="13.89" length="84.89" shape="201.60,-90.09 201.60,-5.20"/>
    </edge>
    <edge id="-E2" from="J3" to="J2" priority="-1">
        <lane id="-E2_0" index="0" allow="pedestrian" speed="13.89" length="171.27" width="2.00" shape="5.20,-104.20 176.47,-104.20"/>
        <lane id="-E2_1" index="1" disallow="pedestrian" speed="13.89" length="171.27" shape="5.20,-101.60 176.47,-101.60"/>
    </edge>
    <edge id="-E3" from="J0" to="J3" priority="-1">
        <lane id="-E3_0" index="0" allow="pedestrian" speed="13.89" length="84.89" width="2.00" shape="-4.20,-9.91 -4.20,-94.80"/>
        <lane id="-E3_1" index="1" disallow="pedestrian" speed="13.89" length="84.89" shape="-1.60,-9.91 -1.60,-94.80"/>
    </edge>
    <edge id="-E4" from="J2" to="J0" priority="-1">
        <lane id="-E4_0" index="0" allow="pedestrian" speed="13.89" length="176.55" width="2.00" shape="180.83,-85.72 22.92,-6.77"/>
        <lane id="-E4_1" index="1" allow="tram rail_urban rail rail_electric rail_fast" speed="13.89" length="176.55" shape="179.67,-88.05 21.76,-9.09"/>
    </edge>
    <edge id="E0" from="J0" to="J1" priority="-1">
        <lane id="E0_0" index="0" allow="pedestrian" speed="13.89" length="171.27" width="2.00" shape="23.53,-4.20 194.80,-4.20"/>
        <lane id="E0_1" index="1" disallow="pedestrian" speed="13.89" length="171.27" shape="23.53,-1.60 194.80,-1.60"/>
    </edge>
    <edge id="E1" from="J1" to="J2" priority="-1">
        <lane id="E1_0" index="0" allow="pedestrian" speed="13.89" length="84.89" width="2.00" shape="195.80,-5.20 195.80,-90.09"/>
        <lane id="E1_1" index="1" disallow="pedestrian" speed="13.89" length="84.89" shape="198.40,-5.20 198.40,-90.09"/>
    </edge>
    <edge id="E2" from="J2" to="J3" priority="-1">
        <lane id="E2_0" index="0" allow="pedestrian" speed="13.89" length="171.27" width="2.00" shape="176.47,-95.80 5.20,-95.80"/>
        <lane id="E2_1" index="1" disallow="pedestrian" speed="13.89" length="171.27" shape="176.47,-98.40 5.20,-98.40"/>
    </edge>
    <edge id="E3" from="J3" to="J0" priority="-1">
        <lane id="E3_0" index="0" allow="pedestrian" speed="13.89" length="84.89" width="2.00" shape="4.20,-94.80 4.20,-9.91"/>
        <lane id="E3_1" index="1" disallow="pedestrian" speed="13.89" length="84.89" shape="1.60,-94.80 1.60,-9.91"/>
    </edge>
    <edge id="E4" from="J0" to="J2" priority="-1">
        <lane id="E4_0" index="0" allow="pedestrian" speed="13.89" length="176.55" width="2.00" shape="19.17,-14.28 177.08,-93.23"/>
        <lane id="E4_1" index="1" allow="tram rail_urban rail rail_electric rail_fast" speed="13.89" length="176.55" shape="20.33,-11.95 178.24,-90.91"/>
    </edge>

    <junction id="J0" type="priority" x="0.00" y="0.00" incLanes="-E0_0 -E0_1 -E4_0 -E4_1 E3_0 E3_1" intLanes=":J0_0_0 :J0_1_0 :J0_2_0 :J0_3_0 :J0_4_0 :J0_5_0" shape="23.53,5.20 23.53,-5.20 23.37,-5.87 18.72,-15.17 14.59,-13.15 11.21,-11.58 8.58,-10.48 6.70,-9.83 5.58,-9.64 5.20,-9.91 -5.20,-9.91 -4.40,-5.30 -2.01,-1.52 1.98,1.42 7.57,3.52 14.75,4.78">
        <request index="0" response="000000" foes="001000" cont="0"/>
        <request index="1" response="110000" foes="111000" cont="0"/>
        <request index="2" response="100000" foes="100000" cont="0"/>
        <request index="3" response="100011" foes="100011" cont="0"/>
        <request index="4" response="000000" foes="000010" cont="0"/>
        <request index="5" response="000000" foes="001110" cont="0"/>
    </junction>
    <junction id="J1" type="priority" x="200.00" y="0.00" incLanes="-E1_0 -E1_1 E0_0 E0_1" intLanes=":J1_0_0 :J1_1_0" shape="205.20,-5.20 194.80,-5.20 194.80,5.20 197.98,4.91 200.58,4.04 202.60,2.60 204.04,0.58 204.91,-2.02">
        <request index="0" response="00" foes="00" cont="0"/>
        <request index="1" response="00" foes="00" cont="0"/>
    </junction>
    <junction id="J2" type="priority" x="200.00" y="-100.00" incLanes="E1_0 E1_1 -E2_0 -E2_1 E4_0 E4_1" intLanes=":J2_0_0 :J2_1_0 :J2_2_0 :J2_3_0 :J2_4_0 :J2_5_0" shape="194.80,-90.09 205.20,-90.09 204.40,-94.70 202.01,-98.48 198.02,-101.42 192.43,-103.52 185.25,-104.78 176.47,-105.20 176.47,-94.80 176.63,-94.13 181.28,-84.83 185.41,-86.85 188.79,-88.42 191.42,-89.52 193.30,-90.17 194.42,-90.36">
        <request index="0" response="000000" foes="001000" cont="0"/>
        <request index="1" response="000000" foes="111000" cont="0"/>
        <request index="2" response="000000" foes="100000" cont="0"/>
        <request index="3" response="000011" foes="100011" cont="0"/>
        <request index="4" response="000010" foes="000010" cont="0"/>
        <request index="5" response="001110" foes="001110" cont="0"/>
    </junction>
    <junction id="J3" type="priority" x="0.00" y="-100.00" incLanes="-E3_0 -E3_1 E2_0 E2_1" intLanes=":J3_0_0 :J3_1_0" shape="-5.20,-94.80 5.20,-94.80 5.20,-105.20 2.02,-104.91 -0.58,-104.04 -2.60,-102.60 -4.04,-100.58 -4.91,-97.98">
        <request index="0" response="00" foes="00" cont="0"/>
        <request index="1" response="00" foes="00" cont="0"/>
    </junction>

    <connection from="-E0" to="-E3" fromLane="1" toLane="1" via=":J0_0_0" dir="L" state="M"/>
    <connection from="-E0" to="E4" fromLane="1" toLane="1" via=":J0_1_0" dir="l" state="m"/>
    <connection from="-E1" to="-E0" fromLane="1" toLane="1" via=":J1_0_0" dir="l" state="M"/>
    <connection from="-E2" to="-E1" fromLane="1" toLane="1" via=":J2_2_0" dir="L" state="M"/>
    <connection from="-E2" to="-E4" fromLane="1" toLane="1" via=":J2_3_0" dir="l" state="m"/>
    <connection from="-E3" to="-E2" fromLane="1" toLane="1" via=":J3_0_0" dir="l" state="M"/>
    <connection from="-E4" to="E0" fromLane="1" toLane="1" via=":J0_2_0" dir="r" state="m"/>
    <connection from="-E4" to="-E3" fromLane="1" toLane="1" via=":J0_3_0" dir="l" state="m"/>
    <connection from="E0" to="E1" fromLane="1" toLane="1" via=":J1_1_0" dir="r" state="M"/>
    <connection from="E1" to="-E4" fromLane="1" toLane="1" via=":J2_0_0" dir="r" state="M"/>
    <connection from="E1" to="E2" fromLane="1" toLane="1" via=":J2_1_0" dir="R" state="M"/>
    <connection from="E2" to="E3" fromLane="1" toLane="1" via=":J3_1_0" dir="r" state="M"/>
    <connection from="E3" to="E4" fromLane="1" toLane="1" via=":J0_4_0" dir="r" state="M"/>
    <connection from="E3" to="E0" fromLane="1" toLane="1" via=":J0_5_0" dir="R" state="M"/>
    <connection from="E4" to="E2" fromLane="1" toLane="1" via=":J2_4_0" dir="r" state="m"/>
    <connection from="E4" to="-E1" fromLane="1" toLane="1" via=":J2_5_0" dir="l" state="m"/>

    <connection from=":J0_0" to="-E3" fromLane="0" toLane="1" dir="L" state="M"/>
    <connection from=":J0_1" to="E4" fromLane="0" toLane="1" dir="l" state="M"/>
    <connection from=":J0_2" to="E0" fromLane="0" toLane="1" dir="r" state="M"/>
    <connection from=":J0_3" to="-E3" fromLane="0" toLane="1" dir="l" state="M"/>
    <connection from=":J0_4" to="E4" fromLane="0" toLane="1" dir="r" state="M"/>
    <connection from=":J0_5" to="E0" fromLane="0" toLane="1" dir="R" state="M"/>
    <connection from=":J1_0" to="-E0" fromLane="0" toLane="1" dir="l" state="M"/>
    <connection from=":J1_1" to="E1" fromLane="0" toLane="1" dir="r" state="M"/>
    <connection from=":J2_0" to="-E4" fromLane="0" toLane="1" dir="r" state="M"/>
    <connection from=":J2_1" to="E2" fromLane="0" toLane="1" dir="R" state="M"/>
    <connection from=":J2_2" to="-E1" fromLane="0" toLane="1" dir="L" state="M"/>
    <connection from=":J2_3" to="-E4" fromLane="0" toLane="1" dir="l" state="M"/>
    <connection from=":J2_4" to="E2" fromLane="0" toLane="1" dir="r" state="M"/>
    <connection from=":J2_5" to="-E1" fromLane="0" toLane="1" dir="l" state="M"/>
    <connection from=":J3_0" to="-E2" fromLane="0" toLane="1" dir="l" state="M"/>
    <connection from=":J3_1" to="E3" fromLane="0" toLane="1" dir="r" state="M"/>

</net>
