<?xml version="1.0" encoding="UTF-8"?>

<!-- generated on 2023-03-28 17:07:24 by Eclipse SUMO netedit Version 1.16.0
<configuration xmlns:xsi="http://www.w3.org/2001/XMLSchema-instance" xsi:noNamespaceSchemaLocation="http://sumo.dlr.de/xsd/netconvertConfiguration.xsd">

    <input>
        <sumo-net-file value="C:\Users\rohak.roy\Sumo\Hambrook_Junction\data\hambrookJunction.net.xml"/>
    </input>

    <output>
        <output-file value="C:\Users\rohak.roy\Sumo\Hambrook_Junction\data\hambrookJunction.net.xml"/>
    </output>

    <processing>
        <geometry.min-radius.fix.railways value="false"/>
        <geometry.max-grade.fix value="false"/>
        <offset.disable-normalization value="true"/>
        <lefthand value="0"/>
    </processing>

    <junctions>
        <no-turnarounds value="true"/>
        <junctions.corner-detail value="5"/>
        <junctions.limit-turn-speed value="5.50"/>
        <rectangular-lane-cut value="0"/>
    </junctions>

    <pedestrian>
        <walkingareas value="0"/>
    </pedestrian>

</configuration>
-->

<net version="1.16" junctionCornerDetail="5" limitTurnSpeed="5.50" xmlns:xsi="http://www.w3.org/2001/XMLSchema-instance" xsi:noNamespaceSchemaLocation="http://sumo.dlr.de/xsd/net_file.xsd">

    <location netOffset="0.00,0.00" convBoundary="-2000.00,-2000.00,2000.00,2000.00" origBoundary="-10000000000.00,-10000000000.00,10000000000.00,10000000000.00" projParameter="!"/>

    <edge id=":Begin-East_0" function="internal">
        <lane id=":Begin-East_0_0" index="0" speed="6.51" length="9.03" shape="1998.40,7.20 1998.05,4.75 1997.00,3.00 1995.25,1.95 1992.80,1.60"/>
    </edge>
    <edge id=":Begin-East_1" function="internal">
        <lane id=":Begin-East_1_0" index="0" speed="13.89" length="14.40" shape="1998.40,7.20 1998.40,-7.20"/>
    </edge>
    <edge id=":Begin-East_2" function="internal">
        <lane id=":Begin-East_2_0" index="0" speed="13.89" length="14.40" shape="2001.60,-7.20 2001.60,7.20"/>
    </edge>
    <edge id=":Begin-East_3" function="internal">
        <lane id=":Begin-East_3_0" index="0" speed="8.00" length="4.07" shape="2001.60,-7.20 2001.05,-3.35 2000.96,-3.20"/>
    </edge>
    <edge id=":Begin-East_6" function="internal">
        <lane id=":Begin-East_6_0" index="0" speed="8.00" length="10.13" shape="2000.96,-3.20 1999.40,-0.60 1996.65,1.05 1992.80,1.60"/>
    </edge>
    <edge id=":Begin-East_4" function="internal">
        <lane id=":Begin-East_4_0" index="0" speed="6.51" length="9.03" shape="1992.80,-1.60 1995.25,-1.95 1997.00,-3.00 1998.05,-4.75 1998.40,-7.20"/>
    </edge>
    <edge id=":Begin-East_5" function="internal">
        <lane id=":Begin-East_5_0" index="0" speed="8.00" length="14.19" shape="1992.80,-1.60 1996.65,-1.05 1999.40,0.60 2001.05,3.35 2001.60,7.20"/>
    </edge>
    <edge id=":Begin-North_0" function="internal">
        <lane id=":Begin-North_0_0" index="0" speed="13.89" length="14.40" shape="7.20,2001.60 -7.20,2001.60"/>
    </edge>
    <edge id=":Begin-North_1" function="internal">
        <lane id=":Begin-North_1_0" index="0" speed="8.00" length="4.07" shape="7.20,2001.60 3.35,2001.05 3.20,2000.96"/>
    </edge>
    <edge id=":Begin-North_6" function="internal">
        <lane id=":Begin-North_6_0" index="0" speed="8.00" length="10.13" shape="3.20,2000.96 0.60,1999.40 -1.05,1996.65 -1.60,1992.80"/>
    </edge>
    <edge id=":Begin-North_2" function="internal">
        <lane id=":Begin-North_2_0" index="0" speed="6.51" length="9.03" shape="1.60,1992.80 1.95,1995.25 3.00,1997.00 4.75,1998.05 7.20,1998.40"/>
    </edge>
    <edge id=":Begin-North_3" function="internal">
        <lane id=":Begin-North_3_0" index="0" speed="8.00" length="14.19" shape="1.60,1992.80 1.05,1996.65 -0.60,1999.40 -3.35,2001.05 -7.20,2001.60"/>
    </edge>
    <edge id=":Begin-North_4" function="internal">
        <lane id=":Begin-North_4_0" index="0" speed="6.51" length="9.03" shape="-7.20,1998.40 -4.75,1998.05 -3.00,1997.00 -1.95,1995.25 -1.60,1992.80"/>
    </edge>
    <edge id=":Begin-North_5" function="internal">
        <lane id=":Begin-North_5_0" index="0" speed="13.89" length="14.40" shape="-7.20,1998.40 7.20,1998.40"/>
    </edge>
    <edge id=":Begin-South_0" function="internal">
        <lane id=":Begin-South_0_0" index="0" speed="6.51" length="9.03" shape="-1.60,-1992.80 -1.95,-1995.25 -3.00,-1997.00 -4.75,-1998.05 -7.20,-1998.40"/>
    </edge>
    <edge id=":Begin-South_1" function="internal">
        <lane id=":Begin-South_1_0" index="0" speed="8.00" length="14.19" shape="-1.60,-1992.80 -1.05,-1996.65 0.60,-1999.40 3.35,-2001.05 7.20,-2001.60"/>
    </edge>
    <edge id=":Begin-South_2" function="internal">
        <lane id=":Begin-South_2_0" index="0" speed="6.51" length="9.03" shape="7.20,-1998.40 4.75,-1998.05 3.00,-1997.00 1.95,-1995.25 1.60,-1992.80"/>
    </edge>
    <edge id=":Begin-South_3" function="internal">
        <lane id=":Begin-South_3_0" index="0" speed="13.89" length="14.40" shape="7.20,-1998.40 -7.20,-1998.40"/>
    </edge>
    <edge id=":Begin-South_4" function="internal">
        <lane id=":Begin-South_4_0" index="0" speed="13.89" length="14.40" shape="-7.20,-2001.60 7.20,-2001.60"/>
    </edge>
    <edge id=":Begin-South_5" function="internal">
        <lane id=":Begin-South_5_0" index="0" speed="8.00" length="4.07" shape="-7.20,-2001.60 -3.35,-2001.05 -3.20,-2000.96"/>
    </edge>
    <edge id=":Begin-South_6" function="internal">
        <lane id=":Begin-South_6_0" index="0" speed="8.00" length="10.13" shape="-3.20,-2000.96 -0.60,-1999.40 1.05,-1996.65 1.60,-1992.80"/>
    </edge>
    <edge id=":Begin-West_0" function="internal">
        <lane id=":Begin-West_0_0" index="0" speed="13.89" length="14.40" shape="-2001.60,7.20 -2001.60,-7.20"/>
    </edge>
    <edge id=":Begin-West_1" function="internal">
        <lane id=":Begin-West_1_0" index="0" speed="8.00" length="4.07" shape="-2001.60,7.20 -2001.05,3.35 -2000.96,3.20"/>
    </edge>
    <edge id=":Begin-West_6" function="internal">
        <lane id=":Begin-West_6_0" index="0" speed="8.00" length="10.13" shape="-2000.96,3.20 -1999.40,0.60 -1996.65,-1.05 -1992.80,-1.60"/>
    </edge>
    <edge id=":Begin-West_2" function="internal">
        <lane id=":Begin-West_2_0" index="0" speed="6.51" length="9.03" shape="-1992.80,1.60 -1995.25,1.95 -1997.00,3.00 -1998.05,4.75 -1998.40,7.20"/>
    </edge>
    <edge id=":Begin-West_3" function="internal">
        <lane id=":Begin-West_3_0" index="0" speed="8.00" length="14.19" shape="-1992.80,1.60 -1996.65,1.05 -1999.40,-0.60 -2001.05,-3.35 -2001.60,-7.20"/>
    </edge>
    <edge id=":Begin-West_4" function="internal">
        <lane id=":Begin-West_4_0" index="0" speed="6.51" length="9.03" shape="-1998.40,-7.20 -1998.05,-4.75 -1997.00,-3.00 -1995.25,-1.95 -1992.80,-1.60"/>
    </edge>
    <edge id=":Begin-West_5" function="internal">
        <lane id=":Begin-West_5_0" index="0" speed="13.89" length="14.40" shape="-1998.40,-7.20 -1998.40,7.20"/>
    </edge>
    <edge id=":East_0" function="internal">
        <lane id=":East_0_0" index="0" speed="13.89" length="10.27" shape="1504.00,1.60 1501.52,3.10 1500.47,6.40 1499.18,9.70 1496.00,11.20"/>
        <lane id=":East_0_1" index="1" speed="13.89" length="10.27" shape="1504.00,1.60 1501.36,2.60 1500.05,4.80 1498.71,7.00 1496.00,8.00"/>
        <lane id=":East_0_2" index="2" speed="13.89" length="10.27" shape="1504.00,1.60 1501.54,2.10 1500.00,3.20 1498.46,4.30 1496.00,4.80"/>
        <lane id=":East_0_3" index="3" speed="13.89" length="10.27" shape="1504.00,1.60 1496.00,1.60"/>
    </edge>
    <edge id=":East_4" function="internal">
        <lane id=":East_4_0" index="0" speed="13.89" length="10.85" shape="1496.00,-8.00 1498.71,-7.00 1500.05,-4.80 1501.36,-2.60 1504.00,-1.60"/>
    </edge>
    <edge id=":Junction_0" function="internal">
        <lane id=":Junction_0_0" index="0" speed="8.10" length="14.57" shape="-11.20,16.80 -11.55,11.55 -12.60,7.80 -14.35,5.55 -16.80,4.80"/>
        <lane id=":Junction_0_1" index="1" speed="9.32" length="19.63" shape="-8.00,16.80 -8.55,10.15 -10.20,5.40 -12.95,2.55 -16.80,1.60"/>
    </edge>
    <edge id=":Junction_2" function="internal">
        <lane id=":Junction_2_0" index="0" speed="13.89" length="36.94" shape="-4.80,16.80 -1.60,-20.00"/>
    </edge>
    <edge id=":Junction_3" function="internal">
        <lane id=":Junction_3_0" index="0" speed="11.36" length="12.28" shape="-1.60,16.80 -0.45,8.75 1.69,5.19"/>
    </edge>
    <edge id=":Junction_17" function="internal">
        <lane id=":Junction_17_0" index="0" speed="11.36" length="17.39" shape="1.69,5.19 3.00,3.00 8.75,-0.45 16.80,-1.60"/>
    </edge>
    <edge id=":Junction_4" function="internal">
        <lane id=":Junction_4_0" index="0" speed="8.83" length="17.50" shape="16.80,11.20 10.15,11.55 5.40,12.60 2.55,14.35 1.60,16.80"/>
    </edge>
    <edge id=":Junction_5" function="internal">
        <lane id=":Junction_5_0" index="0" speed="13.89" length="33.78" shape="16.80,8.00 5.84,7.50 -2.58,6.40 -9.70,5.30 -16.80,4.80"/>
        <lane id=":Junction_5_1" index="1" speed="13.89" length="33.78" shape="16.80,4.80 5.84,4.30 -2.58,3.20 -9.70,2.10 -16.80,1.60"/>
    </edge>
    <edge id=":Junction_7" function="internal">
        <lane id=":Junction_7_0" index="0" speed="11.84" length="6.28" shape="16.80,1.60 10.61,0.56"/>
    </edge>
    <edge id=":Junction_18" function="internal">
        <lane id=":Junction_18_0" index="0" speed="11.84" length="26.02" shape="10.61,0.56 8.75,0.25 3.00,-3.80 -0.45,-10.55 -1.60,-20.00"/>
    </edge>
    <edge id=":Junction_8" function="internal">
        <lane id=":Junction_8_0" index="0" speed="8.10" length="14.57" shape="11.20,-20.00 11.55,-14.75 12.60,-11.00 14.35,-8.75 16.80,-8.00"/>
    </edge>
    <edge id=":Junction_9" function="internal">
        <lane id=":Junction_9_0" index="0" speed="13.89" length="37.45" shape="8.00,-20.00 7.00,-7.07 4.80,3.53 2.60,11.57 1.60,16.80"/>
    </edge>
    <edge id=":Junction_10" function="internal">
        <lane id=":Junction_10_0" index="0" speed="12.72" length="19.47" shape="4.80,-20.00 3.45,-9.15 -0.50,-1.58"/>
        <lane id=":Junction_10_1" index="1" speed="11.84" length="10.34" shape="1.60,-20.00 0.45,-10.55 0.08,-9.82"/>
    </edge>
    <edge id=":Junction_19" function="internal">
        <lane id=":Junction_19_0" index="0" speed="12.72" length="17.98" shape="-0.50,-1.58 -0.60,-1.40 -7.35,3.25 -16.80,4.80"/>
    </edge>
    <edge id=":Junction_20" function="internal">
        <lane id=":Junction_20_0" index="0" speed="11.84" length="21.96" shape="0.08,-9.82 -3.00,-3.80 -8.75,0.25 -16.80,1.60"/>
    </edge>
    <edge id=":Junction_12" function="internal">
        <lane id=":Junction_12_0" index="0" speed="8.83" length="17.50" shape="-16.80,-14.40 -10.15,-14.75 -5.40,-15.80 -2.55,-17.55 -1.60,-20.00"/>
    </edge>
    <edge id=":Junction_13" function="internal">
        <lane id=":Junction_13_0" index="0" speed="13.89" length="33.80" shape="-16.80,-11.20 -6.54,-10.70 0.70,-9.60 7.60,-8.50 16.80,-8.00"/>
        <lane id=":Junction_13_1" index="1" speed="13.89" length="33.80" shape="-16.80,-8.00 -6.54,-7.50 0.70,-6.40 7.60,-5.30 16.80,-4.80"/>
        <lane id=":Junction_13_2" index="2" speed="13.89" length="33.80" shape="-16.80,-4.80 -6.54,-4.30 0.70,-3.20 7.60,-2.10 16.80,-1.60"/>
    </edge>
    <edge id=":Junction_16" function="internal">
        <lane id=":Junction_16_0" index="0" speed="11.36" length="8.38" shape="-16.80,-1.60 -8.75,-0.45 -8.53,-0.32"/>
    </edge>
    <edge id=":Junction_21" function="internal">
        <lane id=":Junction_21_0" index="0" speed="11.36" length="21.29" shape="-8.53,-0.32 -3.00,3.00 0.45,8.75 1.60,16.80"/>
    </edge>
    <edge id=":North_0" function="internal">
        <lane id=":North_0_0" index="0" speed="13.89" length="10.27" shape="-1.60,1504.00 -3.10,1501.52 -6.40,1500.47 -9.70,1499.18 -11.20,1496.00"/>
        <lane id=":North_0_1" index="1" speed="13.89" length="10.27" shape="-1.60,1504.00 -2.60,1501.36 -4.80,1500.05 -7.00,1498.71 -8.00,1496.00"/>
        <lane id=":North_0_2" index="2" speed="13.89" length="10.27" shape="-1.60,1504.00 -2.10,1501.54 -3.20,1500.00 -4.30,1498.46 -4.80,1496.00"/>
        <lane id=":North_0_3" index="3" speed="13.89" length="10.27" shape="-1.60,1504.00 -1.60,1496.00"/>
    </edge>
    <edge id=":North_4" function="internal">
        <lane id=":North_4_0" index="0" speed="13.89" length="8.00" shape="1.60,1496.00 1.60,1504.00"/>
    </edge>
    <edge id=":North_East_0" function="internal">
        <lane id=":North_East_0_0" index="0" speed="6.08" length="7.74" shape="2001.60,1996.80 2001.30,1998.90 2000.40,2000.40 1998.90,2001.30 1996.80,2001.60"/>
    </edge>
    <edge id=":North_East_1" function="internal">
        <lane id=":North_East_1_0" index="0" speed="3.90" length="2.58" shape="1996.80,1998.40 1997.50,1998.30 1998.00,1998.00 1998.30,1997.50 1998.40,1996.80"/>
    </edge>
    <edge id=":North_West_0" function="internal">
        <lane id=":North_West_0_0" index="0" speed="6.08" length="7.74" shape="-1996.80,2001.60 -1998.90,2001.30 -2000.40,2000.40 -2001.30,1998.90 -2001.60,1996.80"/>
    </edge>
    <edge id=":North_West_1" function="internal">
        <lane id=":North_West_1_0" index="0" speed="3.90" length="2.58" shape="-1998.40,1996.80 -1998.30,1997.50 -1998.00,1998.00 -1997.50,1998.30 -1996.80,1998.40"/>
    </edge>
    <edge id=":South_0" function="internal">
        <lane id=":South_0_0" index="0" speed="13.89" length="8.00" shape="-1.60,-1496.00 -1.60,-1504.00"/>
    </edge>
    <edge id=":South_1" function="internal">
        <lane id=":South_1_0" index="0" speed="13.89" length="10.27" shape="1.60,-1504.00 3.10,-1501.52 6.40,-1500.47 9.70,-1499.18 11.20,-1496.00"/>
        <lane id=":South_1_1" index="1" speed="13.89" length="10.27" shape="1.60,-1504.00 2.60,-1501.36 4.80,-1500.05 7.00,-1498.71 8.00,-1496.00"/>
        <lane id=":South_1_2" index="2" speed="13.89" length="10.27" shape="1.60,-1504.00 2.10,-1501.54 3.20,-1500.00 4.30,-1498.46 4.80,-1496.00"/>
        <lane id=":South_1_3" index="3" speed="13.89" length="10.27" shape="1.60,-1504.00 1.60,-1496.00"/>
    </edge>
    <edge id=":South_East_0" function="internal">
        <lane id=":South_East_0_0" index="0" speed="3.90" length="2.58" shape="1998.40,-1996.80 1998.30,-1997.50 1998.00,-1998.00 1997.50,-1998.30 1996.80,-1998.40"/>
    </edge>
    <edge id=":South_East_1" function="internal">
        <lane id=":South_East_1_0" index="0" speed="6.08" length="7.74" shape="1996.80,-2001.60 1998.90,-2001.30 2000.40,-2000.40 2001.30,-1998.90 2001.60,-1996.80"/>
    </edge>
    <edge id=":South_West_0" function="internal">
        <lane id=":South_West_0_0" index="0" speed="6.08" length="7.74" shape="-2001.60,-1996.80 -2001.30,-1998.90 -2000.40,-2000.40 -1998.90,-2001.30 -1996.80,-2001.60"/>
    </edge>
    <edge id=":South_West_1" function="internal">
        <lane id=":South_West_1_0" index="0" speed="3.90" length="2.58" shape="-1996.80,-1998.40 -1997.50,-1998.30 -1998.00,-1998.00 -1998.30,-1997.50 -1998.40,-1996.80"/>
    </edge>
    <edge id=":West_0" function="internal">
        <lane id=":West_0_0" index="0" speed="13.89" length="8.81" shape="-1496.00,4.80 -1498.46,4.30 -1500.00,3.20 -1501.54,2.10 -1504.00,1.60"/>
    </edge>
    <edge id=":West_1" function="internal">
        <lane id=":West_1_0" index="0" speed="13.89" length="11.48" shape="-1504.00,-1.60 -1501.70,-3.60 -1500.96,-8.00 -1499.73,-12.40 -1496.00,-14.40"/>
        <lane id=":West_1_1" index="1" speed="13.89" length="11.48" shape="-1504.00,-1.60 -1501.52,-3.10 -1500.47,-6.40 -1499.18,-9.70 -1496.00,-11.20"/>
        <lane id=":West_1_2" index="2" speed="13.89" length="11.48" shape="-1504.00,-1.60 -1501.36,-2.60 -1500.05,-4.80 -1498.71,-7.00 -1496.00,-8.00"/>
        <lane id=":West_1_3" index="3" speed="13.89" length="11.48" shape="-1504.00,-1.60 -1501.54,-2.10 -1500.00,-3.20 -1498.46,-4.30 -1496.00,-4.80"/>
        <lane id=":West_1_4" index="4" speed="13.89" length="11.48" shape="-1504.00,-1.60 -1496.00,-1.60"/>
    </edge>

    <edge id="BEtoE" from="Begin-East" to="East" priority="-1">
        <lane id="BEtoE_0" index="0" speed="13.89" length="488.80" shape="1992.80,1.60 1504.00,1.60"/>
    </edge>
    <edge id="BEtoNE" from="Begin-East" to="North_East" priority="-1">
        <lane id="BEtoNE_0" index="0" speed="13.89" length="1989.60" shape="2001.60,7.20 2001.60,1996.80"/>
    </edge>
    <edge id="BEtoSE" from="Begin-East" to="South_East" priority="-1">
        <lane id="BEtoSE_0" index="0" speed="13.89" length="1989.60" shape="1998.40,-7.20 1998.40,-1996.80"/>
    </edge>
    <edge id="BNtoN" from="Begin-North" to="North" priority="-1">
        <lane id="BNtoN_0" index="0" speed="13.89" length="488.80" shape="-1.60,1992.80 -1.60,1504.00"/>
    </edge>
    <edge id="BNtoNE" from="Begin-North" to="North_East" priority="-1">
        <lane id="BNtoNE_0" index="0" speed="13.89" length="1989.60" shape="7.20,1998.40 1996.80,1998.40"/>
    </edge>
    <edge id="BNtoNW" from="Begin-North" to="North_West" priority="-1">
        <lane id="BNtoNW_0" index="0" speed="13.89" length="1989.60" shape="-7.20,2001.60 -1996.80,2001.60"/>
    </edge>
    <edge id="BStoS" from="Begin-South" to="South" priority="-1">
        <lane id="BStoS_0" index="0" speed="13.89" length="488.80" shape="1.60,-1992.80 1.60,-1504.00"/>
    </edge>
    <edge id="BStoSE" from="Begin-South" to="South_East" priority="-1">
        <lane id="BStoSE_0" index="0" speed="13.89" length="1989.60" shape="7.20,-2001.60 1996.80,-2001.60"/>
    </edge>
    <edge id="BStoSW" from="Begin-South" to="South_West" priority="-1">
        <lane id="BStoSW_0" index="0" speed="13.89" length="1989.60" shape="-7.20,-1998.40 -1996.80,-1998.40"/>
    </edge>
    <edge id="BWtoNW" from="Begin-West" to="North_West" priority="-1">
        <lane id="BWtoNW_0" index="0" speed="13.89" length="1989.60" shape="-1998.40,7.20 -1998.40,1996.80"/>
    </edge>
    <edge id="BWtoSW" from="Begin-West" to="South_West" priority="-1">
        <lane id="BWtoSW_0" index="0" speed="13.89" length="1989.60" shape="-2001.60,-7.20 -2001.60,-1996.80"/>
    </edge>
    <edge id="BWtoW" from="Begin-West" to="West" priority="-1">
        <lane id="BWtoW_0" index="0" speed="13.89" length="488.80" shape="-1992.80,-1.60 -1504.00,-1.60"/>
    </edge>
    <edge id="EtoBE" from="East" to="Begin-East" priority="-1">
        <lane id="EtoBE_0" index="0" speed="13.89" length="488.80" shape="1504.00,-1.60 1992.80,-1.60"/>
    </edge>
    <edge id="EtoJ" from="East" to="Junction" priority="-1">
        <lane id="EtoJ_0" index="0" speed="13.89" length="1479.20" shape="1496.00,11.20 16.80,11.20"/>
        <lane id="EtoJ_1" index="1" speed="13.89" length="1479.20" shape="1496.00,8.00 16.80,8.00"/>
        <lane id="EtoJ_2" index="2" speed="13.89" length="1479.20" shape="1496.00,4.80 16.80,4.80"/>
        <lane id="EtoJ_3" index="3" speed="13.89" length="1479.20" shape="1496.00,1.60 16.80,1.60"/>
    </edge>
    <edge id="JtoE" from="Junction" to="East" priority="-1">
        <lane id="JtoE_0" index="0" speed="13.89" length="1479.20" shape="16.80,-8.00 1496.00,-8.00"/>
        <lane id="JtoE_1" index="1" speed="13.89" length="1479.20" shape="16.80,-4.80 1496.00,-4.80"/>
        <lane id="JtoE_2" index="2" speed="13.89" length="1479.20" shape="16.80,-1.60 1496.00,-1.60"/>
    </edge>
    <edge id="JtoN" from="Junction" to="North" priority="-1">
        <lane id="JtoN_0" index="0" speed="13.89" length="1479.20" shape="1.60,16.80 1.60,1496.00"/>
    </edge>
    <edge id="JtoS" from="Junction" to="South" priority="-1">
        <lane id="JtoS_0" index="0" speed="13.89" length="1476.00" shape="-1.60,-20.00 -1.60,-1496.00"/>
    </edge>
    <edge id="JtoW" from="Junction" to="West" priority="-1">
        <lane id="JtoW_0" index="0" speed="13.89" length="1479.20" shape="-16.80,4.80 -1496.00,4.80"/>
        <lane id="JtoW_1" index="1" speed="13.89" length="1479.20" shape="-16.80,1.60 -1496.00,1.60"/>
    </edge>
    <edge id="NEtoBE" from="North_East" to="Begin-East" priority="-1">
        <lane id="NEtoBE_0" index="0" speed="13.89" length="1989.60" shape="1998.40,1996.80 1998.40,7.20"/>
    </edge>
    <edge id="NEtoBN" from="North_East" to="Begin-North" priority="-1">
        <lane id="NEtoBN_0" index="0" speed="13.89" length="1989.60" shape="1996.80,2001.60 7.20,2001.60"/>
    </edge>
    <edge id="NWtoBN" from="North_West" to="Begin-North" priority="-1">
        <lane id="NWtoBN_0" index="0" speed="13.89" length="1989.60" shape="-1996.80,1998.40 -7.20,1998.40"/>
    </edge>
    <edge id="NWtoBW" from="North_West" to="Begin-West" priority="-1">
        <lane id="NWtoBW_0" index="0" speed="13.89" length="1989.60" shape="-2001.60,1996.80 -2001.60,7.20"/>
    </edge>
    <edge id="NtoBN" from="North" to="Begin-North" priority="-1">
        <lane id="NtoBN_0" index="0" speed="13.89" length="488.80" shape="1.60,1504.00 1.60,1992.80"/>
    </edge>
    <edge id="NtoJ" from="North" to="Junction" priority="-1">
        <lane id="NtoJ_0" index="0" speed="13.89" length="1479.20" shape="-11.20,1496.00 -11.20,16.80"/>
        <lane id="NtoJ_1" index="1" speed="13.89" length="1479.20" shape="-8.00,1496.00 -8.00,16.80"/>
        <lane id="NtoJ_2" index="2" speed="13.89" length="1479.20" shape="-4.80,1496.00 -4.80,16.80"/>
        <lane id="NtoJ_3" index="3" speed="13.89" length="1479.20" shape="-1.60,1496.00 -1.60,16.80"/>
    </edge>
    <edge id="SEtoBE" from="South_East" to="Begin-East" priority="-1">
        <lane id="SEtoBE_0" index="0" speed="13.89" length="1989.60" shape="2001.60,-1996.80 2001.60,-7.20"/>
    </edge>
    <edge id="SEtoBS" from="South_East" to="Begin-South" priority="-1">
        <lane id="SEtoBS_0" index="0" speed="13.89" length="1989.60" shape="1996.80,-1998.40 7.20,-1998.40"/>
    </edge>
    <edge id="SWtoBS" from="South_West" to="Begin-South" priority="-1">
        <lane id="SWtoBS_0" index="0" speed="13.89" length="1989.60" shape="-1996.80,-2001.60 -7.20,-2001.60"/>
    </edge>
    <edge id="SWtoBW" from="South_West" to="Begin-West" priority="-1">
        <lane id="SWtoBW_0" index="0" speed="13.89" length="1989.60" shape="-1998.40,-1996.80 -1998.40,-7.20"/>
    </edge>
    <edge id="StoBS" from="South" to="Begin-South" priority="-1">
        <lane id="StoBS_0" index="0" speed="13.89" length="488.80" shape="-1.60,-1504.00 -1.60,-1992.80"/>
    </edge>
    <edge id="StoJ" from="South" to="Junction" priority="-1">
        <lane id="StoJ_0" index="0" speed="13.89" length="1476.00" shape="11.20,-1496.00 11.20,-20.00"/>
        <lane id="StoJ_1" index="1" speed="13.89" length="1476.00" shape="8.00,-1496.00 8.00,-20.00"/>
        <lane id="StoJ_2" index="2" speed="13.89" length="1476.00" shape="4.80,-1496.00 4.80,-20.00"/>
        <lane id="StoJ_3" index="3" speed="13.89" length="1476.00" shape="1.60,-1496.00 1.60,-20.00"/>
    </edge>
    <edge id="WtoBW" from="West" to="Begin-West" priority="-1">
        <lane id="WtoBW_0" index="0" speed="13.89" length="488.80" shape="-1504.00,1.60 -1992.80,1.60"/>
    </edge>
    <edge id="WtoJ" from="West" to="Junction" priority="-1">
        <lane id="WtoJ_0" index="0" speed="13.89" length="1479.20" shape="-1496.00,-14.40 -16.80,-14.40"/>
        <lane id="WtoJ_1" index="1" speed="13.89" length="1479.20" shape="-1496.00,-11.20 -16.80,-11.20"/>
        <lane id="WtoJ_2" index="2" speed="13.89" length="1479.20" shape="-1496.00,-8.00 -16.80,-8.00"/>
        <lane id="WtoJ_3" index="3" speed="13.89" length="1479.20" shape="-1496.00,-4.80 -16.80,-4.80"/>
        <lane id="WtoJ_4" index="4" speed="13.89" length="1479.20" shape="-1496.00,-1.60 -16.80,-1.60"/>
    </edge>

    <tlLogic id="Junction" type="static" programID="0" offset="0">
        <phase duration="33" state="rrrrrGGGgrrrrGGGGg"/>
        <phase duration="3"  state="rrrrryyygrrrryyyyg"/>
        <phase duration="6"  state="rrrrrrrrGrrrrrrrrG"/>
        <phase duration="3"  state="rrrrrrrryrrrrrrrry"/>
        <phase duration="33" state="GGGggrrrrGGggrrrrr"/>
        <phase duration="3"  state="yyyggrrrryyggrrrrr"/>
        <phase duration="6"  state="rrrGGrrrrrrGGrrrrr"/>
        <phase duration="3"  state="rrryyrrrrrryyrrrrr"/>
    </tlLogic>

    <junction id="Begin-East" type="priority" x="2000.00" y="0.00" incLanes="NEtoBE_0 SEtoBE_0 EtoBE_0" intLanes=":Begin-East_0_0 :Begin-East_1_0 :Begin-East_2_0 :Begin-East_6_0 :Begin-East_4_0 :Begin-East_5_0" shape="1996.80,7.20 2003.20,7.20 2003.20,-7.20 1996.80,-7.20 1996.36,-4.98 1995.80,-4.20 1995.02,-3.64 1994.02,-3.31 1992.80,-3.20 1992.80,3.20 1995.02,3.64 1995.80,4.20 1996.36,4.98 1996.69,5.98">
        <request index="0" response="000000" foes="001000" cont="0"/>
        <request index="1" response="000000" foes="111000" cont="0"/>
        <request index="2" response="000000" foes="100000" cont="0"/>
        <request index="3" response="000011" foes="100011" cont="1"/>
        <request index="4" response="000010" foes="000010" cont="0"/>
        <request index="5" response="001110" foes="001110" cont="0"/>
    </junction>
    <junction id="Begin-North" type="priority" x="0.00" y="2000.00" incLanes="NEtoBN_0 NtoBN_0 NWtoBN_0" intLanes=":Begin-North_0_0 :Begin-North_6_0 :Begin-North_2_0 :Begin-North_3_0 :Begin-North_4_0 :Begin-North_5_0" shape="7.20,2003.20 7.20,1996.80 4.98,1996.36 4.20,1995.80 3.64,1995.02 3.31,1994.02 3.20,1992.80 -3.20,1992.80 -3.64,1995.02 -4.20,1995.80 -4.98,1996.36 -5.98,1996.69 -7.20,1996.80 -7.20,2003.20">
        <request index="0" response="000000" foes="001000" cont="0"/>
        <request index="1" response="110000" foes="111000" cont="1"/>
        <request index="2" response="100000" foes="100000" cont="0"/>
        <request index="3" response="100011" foes="100011" cont="0"/>
        <request index="4" response="000000" foes="000010" cont="0"/>
        <request index="5" response="000000" foes="001110" cont="0"/>
    </junction>
    <junction id="Begin-South" type="priority" x="0.00" y="-2000.00" incLanes="StoBS_0 SEtoBS_0 SWtoBS_0" intLanes=":Begin-South_0_0 :Begin-South_1_0 :Begin-South_2_0 :Begin-South_3_0 :Begin-South_4_0 :Begin-South_6_0" shape="-3.20,-1992.80 3.20,-1992.80 3.64,-1995.02 4.20,-1995.80 4.98,-1996.36 5.98,-1996.69 7.20,-1996.80 7.20,-2003.20 -7.20,-2003.20 -7.20,-1996.80 -4.98,-1996.36 -4.20,-1995.80 -3.64,-1995.02 -3.31,-1994.02">
        <request index="0" response="001000" foes="001000" cont="0"/>
        <request index="1" response="111000" foes="111000" cont="0"/>
        <request index="2" response="000000" foes="100000" cont="0"/>
        <request index="3" response="000000" foes="100011" cont="0"/>
        <request index="4" response="000000" foes="000010" cont="0"/>
        <request index="5" response="001100" foes="001110" cont="1"/>
    </junction>
    <junction id="Begin-West" type="priority" x="-2000.00" y="0.00" incLanes="NWtoBW_0 WtoBW_0 SWtoBW_0" intLanes=":Begin-West_0_0 :Begin-West_6_0 :Begin-West_2_0 :Begin-West_3_0 :Begin-West_4_0 :Begin-West_5_0" shape="-2003.20,7.20 -1996.80,7.20 -1996.36,4.98 -1995.80,4.20 -1995.02,3.64 -1994.02,3.31 -1992.80,3.20 -1992.80,-3.20 -1995.02,-3.64 -1995.80,-4.20 -1996.36,-4.98 -1996.69,-5.98 -1996.80,-7.20 -2003.20,-7.20">
        <request index="0" response="000000" foes="001000" cont="0"/>
        <request index="1" response="110000" foes="111000" cont="1"/>
        <request index="2" response="100000" foes="100000" cont="0"/>
        <request index="3" response="100011" foes="100011" cont="0"/>
        <request index="4" response="000000" foes="000010" cont="0"/>
        <request index="5" response="000000" foes="001110" cont="0"/>
    </junction>
    <junction id="East" type="priority" x="1500.00" y="0.00" incLanes="BEtoE_0 JtoE_0 JtoE_1 JtoE_2" intLanes=":East_0_0 :East_0_1 :East_0_2 :East_0_3 :East_4_0" shape="1504.00,3.20 1504.00,-3.20 1501.98,-3.67 1500.79,-4.86 1499.21,-7.94 1498.02,-9.13 1496.00,-9.60 1496.00,12.80 1498.33,12.09 1499.46,10.31 1500.54,5.69 1501.67,3.91">
        <request index="0" response="00000" foes="00000" cont="0"/>
        <request index="1" response="00000" foes="00000" cont="0"/>
        <request index="2" response="00000" foes="00000" cont="0"/>
        <request index="3" response="00000" foes="00000" cont="0"/>
        <request index="4" response="00000" foes="00000" cont="0"/>
    </junction>
    <junction id="Junction" type="traffic_light" x="0.00" y="0.00" incLanes="NtoJ_0 NtoJ_1 NtoJ_2 NtoJ_3 EtoJ_0 EtoJ_1 EtoJ_2 EtoJ_3 StoJ_0 StoJ_1 StoJ_2 StoJ_3 WtoJ_0 WtoJ_1 WtoJ_2 WtoJ_3 WtoJ_4" intLanes=":Junction_0_0 :Junction_0_1 :Junction_2_0 :Junction_17_0 :Junction_4_0 :Junction_5_0 :Junction_5_1 :Junction_18_0 :Junction_8_0 :Junction_9_0 :Junction_19_0 :Junction_20_0 :Junction_12_0 :Junction_13_0 :Junction_13_1 :Junction_13_2 :Junction_21_0" shape="-12.80,16.80 3.20,16.80 4.71,14.58 6.60,13.80 9.24,13.24 12.64,12.91 16.80,12.80 16.80,-9.60 14.58,-10.76 13.80,-12.20 13.24,-14.22 12.91,-16.82 12.80,-20.00 -3.20,-20.00 -4.71,-17.78 -6.60,-17.00 -9.24,-16.44 -12.64,-16.11 -16.80,-16.00 -16.80,6.40 -14.58,7.56 -13.80,9.00 -13.24,11.02 -12.91,13.62">
        <request index="0"  response="00000000001100000" foes="00000110001100000" cont="0"/>
        <request index="1"  response="00000000001100000" foes="00000110001100000" cont="0"/>
        <request index="2"  response="11111000011100000" foes="11111110011100000" cont="0"/>
        <request index="3"  response="11110001011100000" foes="11110001011100000" cont="1"/>
        <request index="4"  response="00000000000000000" foes="10000001000000000" cont="0"/>
        <request index="5"  response="00000110000001000" foes="10000111000001111" cont="0"/>
        <request index="6"  response="00000110000001000" foes="10000111000001111" cont="0"/>
        <request index="7"  response="01111110000001000" foes="01111111000001100" cont="1"/>
        <request index="8"  response="01110000000000000" foes="01110000000000000" cont="0"/>