<routes>
    <vType id="car" vClass="passenger" color="230,230,250"/>
    <vType id="bus" vClass="bus" color="255, 165, 0"/>
    <vType id="trailer" vClass="trailer" color="255,192,203"/>
    <vType id="motorcycle" vClass="motorcycle" color="red"/>
    <vType id="bicycle" vClass="bicycle" color="yellow"/>
    <vType id="mini-truck" vClass="delivery" color="blue"/>
    <vType id="van" vClass="hov" color="green"/>

    <route id="route_01" edges="BWtoW WtoJ JtoE EtoBE BEtoNE NEtoBN"/>
    <route id="route_02" edges="BEtoE EtoJ JtoW WtoBW BWtoNW NWtoBN"/>
    <route id="route_03" edges="BNtoN NtoJ JtoS StoBS BStoSW SWtoBW"/>
    <route id="route_04" edges="BStoS StoJ JtoN NtoBN BNtoNE NEtoBE"/>
    
    <vehicle id="car_1" type="car" route="route_01" depart="10" />
    <vehicle id="truck_1" type="mini-truck" route="route_01" depart="10" />
    <vehicle id="truck_2" type="trailer" route="route_01" depart="10" />
    <vehicle id="motorcycle_1" type="motorcycle" route="route_01" depart="10" />
    <vehicle id="car_2" type="car" route="route_02" depart="20" />
    <vehicle id="car_3" type="car" route="route_03" depart="30" />
    <vehicle id="truck_3" type="mini-truck" route="route_03" depart="30" />
    <vehicle id="bus_1" type="bus" route="route_03" depart="30" />
    <vehicle id="motorcycle_2" type="motorcycle" route="route_03" depart="30" />
    <vehicle id="car_4" type="car" route="route_02" depart="40" />
    <vehicle id="truck_4" type="mini-truck" route="route_02" depart="40" />
    <vehicle id="truck_5" type="trailer" route="route_02" depart="40" />
    <vehicle id="bicycle_1" type="bicycle" route="route_02" depart="40" />
    <vehicle id="car_5" type="car" route="route_04" depart="50" />
    <vehicle id="car_6" type="van" route="route_04" depart="50" />
    <vehicle id="truck_6" type="trailer" route="route_04" depart="50" />
    <vehicle id="motorcycle_3" type="motorcycle" route="route_04" depart="50" />
    <vehicle id="car_7" type="car" route="route_02" depart="60" />
    <vehicle id="car_8" type="car" route="route_04" depart="70" />
    <vehicle id="truck_7" type="mini-truck" route="route_04" depart="70" />
    <vehicle id="truck_8" type="trailer" route="route_04" depart="70" />
    <vehicle id="truck_9" type="mini-truck" route="route_01" depart="80" />
    <vehicle id="car_9" type="car" route="route_01" depart="90" />
    <vehicle id="car_10" type="car" route="route_03" depart="100" />
    <vehicle id="truck_10" type="mini-truck" route="route_03" depart="100" />
    <vehicle id="car_11" type="car" route="route_02" depart="110" />
    <vehicle id="car_12" type="van" route="route_02" depart="110" />
    <vehicle id="bus_2" type="bus" route="route_02" depart="110" />
    <vehicle id="car_13" type="car" route="route_02" depart="120" />
    <vehicle id="car_14" type="van" route="route_02" depart="120" />
    <vehicle id="bus_3" type="bus" route="route_02" depart="120" />
    <vehicle id="bicycle_2" type="bicycle" route="route_02" depart="120" />
    <vehicle id="car_15" type="car" route="route_03" depart="130" />
    <vehicle id="truck_11" type="mini-truck" route="route_03" depart="130" />
    <vehicle id="bus_4" type="bus" route="route_03" depart="130" />
    <vehicle id="bicycle_3" type="bicycle" route="route_03" depart="130" />
    <vehicle id="car_16" type="car" route="route_04" depart="140" />
    <vehicle id="car_17" type="van" route="route_04" depart="140" />
    <vehicle id="bus_5" type="bus" route="route_04" depart="140" />
    <vehicle id="car_18" type="car" route="route_01" depart="150" />
    <vehicle id="car_19" type="van" route="route_01" depart="150" />
    <vehicle id="bus_6" type="bus" route="route_01" depart="150" />
    <vehicle id="car_20" type="car" route="route_03" depart="160" />
    <vehicle id="car_21" type="van" route="route_03" depart="160" />
    <vehicle id="motorcycle_4" type="motorcycle" route="route_03" depart="160" />
    <vehicle id="car_22" type="car" route="route_01" depart="170" />
    <vehicle id="car_23" type="van" route="route_01" depart="170" />
    <vehicle id="bus_7" type="bus" route="route_01" depart="170" />
    <vehicle id="car_24" type="car" route="route_02" depart="180" />
    <vehicle id="car_25" type="van" route="route_02" depart="180" />
    <vehicle id="truck_12" type="trailer" route="route_02" depart="180" />
    <vehicle id="truck_13" type="mini-truck" route="route_01" depart="190" />
    <vehicle id="car_26" type="car" route="route_02" depart="200" />
    <vehicle id="car_27" type="van" route="route_02" depart="200" />
    <vehicle id="bus_8" type="bus" route="route_02" depart="200" />
    <vehicle id="motorcycle_5" type="motorcycle" route="route_02" depart="200" />
    <vehicle id="car_28" type="car" route="route_03" depart="210" />
    <vehicle id="car_29" type="van" route="route_03" depart="210" />
    <vehicle id="bus_9" type="bus" route="route_03" depart="210" />
    <vehicle id="bicycle_4" type="bicycle" route="route_03" depart="210" />
    <vehicle id="car_30" type="van" route="route_04" depart="220" />
    <vehicle id="bus_10" type="bus" route="route_04" depart="220" />
    <vehicle id="car_31" type="car" route="route_04" depart="230" />
    <vehicle id="truck_14" type="mini-truck" route="route_04" depart="230" />
    <vehicle id="bus_11" type="bus" route="route_04" depart="230" />
    <vehicle id="motorcycle_6" type="motorcycle" route="route_04" depart="230" />
    <vehicle id="car_32" type="car" route="route_01" depart="240" />
    <vehicle id="car_33" type="van" route="route_01" depart="240" />
    <vehicle id="car_34" type="car" route="route_04" depart="250" />
    <vehicle id="truck_15" type="mini-truck" route="route_04" depart="250" />
    <vehicle id="bus_12" type="bus" route="route_04" depart="250" />
    <vehicle id="motorcycle_7" type="motorcycle" route="route_04" depart="250" />
    <vehicle id="car_35" type="car" route="route_02" depart="260" />
    <vehicle id="motorcycle_8" type="motorcycle" route="route_02" depart="260" />
    <vehicle id="car_36" type="car" route="route_01" depart="270" />
    <vehicle id="car_37" type="van" route="route_01" depart="270" />
    <vehicle id="bus_13" type="bus" route="route_01" depart="270" />
    <vehicle id="motorcycle_9" type="motorcycle" route="route_01" depart="270" />
    <vehicle id="car_38" type="car" route="route_01" depart="280" />
    <vehicle id="truck_16" type="mini-truck" route="route_01" depart="280" />
    <vehicle id="bus_14" type="bus" route="route_01" depart="280" />
    <vehicle id="motorcycle_10" type="motorcycle" route="route_01" depart="280" />
    <vehicle id="car_39" type="car" route="route_02" depart="290" />
    <vehicle id="truck_17" type="mini-truck" route="route_02" depart="290" />
    <vehicle id="bus_15" type="bus" route="route_02" depart="290" />
    <vehicle id="car_40" type="car" route="route_04" depart="300" />
    <vehicle id="car_41" type="van" route="route_04" depart="300" />
    <vehicle id="truck_18" type="trailer" route="route_04" depart="300" />
    <vehicle id="motorcycle_11" type="motorcycle" route="route_04" depart="300" />
    <vehicle id="car_42" type="car" route="route_01" depart="310" />
    <vehicle id="car_43" type="van" route="route_01" depart="310" />
    <vehicle id="bus_16" type="bus" route="route_01" depart="310" />
    <vehicle id="motorcycle_12" type="motorcycle" route="route_01" depart="310" />
    <vehicle id="car_44" type="car" route="route_01" depart="320" />
    <vehicle id="truck_19" type="mini-truck" route="route_01" depart="320" />
    <vehicle id="car_45" type="car" route="route_01" depart="330" />
    <vehicle id="truck_20" type="mini-truck" route="route_01" depart="330" />
    <vehicle id="bus_17" type="bus" route="route_01" depart="330" />
    <vehicle id="car_46" type="car" route="route_04" depart="340" />
    <vehicle id="car_47" type="van" route="route_04" depart="340" />
    <vehicle id="bus_18" type="bus" route="route_04" depart="340" />
    <vehicle id="motorcycle_13" type="motorcycle" route="route_04" depart="340" />
    <vehicle id="car_48" type="car" route="route_02" depart="350" />
    <vehicle id="truck_21" type="mini-truck" route="route_02" depart="350" />
    <vehicle id="car_49" type="car" route="route_02" depart="360" />
    <vehicle id="car_50" type="van" route="route_02" depart="360" />
    <vehicle id="truck_22" type="trailer" route="route_02" depart="360" />
    <vehicle id="motorcycle_14" type="motorcycle" route="route_02" depart="360" />
    <vehicle id="car_51" type="car" route="route_02" depart="370" />
    <vehicle id="truck_23" type="mini-truck" route="route_02" depart="370" />
    <vehicle id="truck_24" type="mini-truck" route="route_01" depart="380" />
    <vehicle id="car_52" type="car" route="route_01" depart="390" />
    <vehicle id="truck_25" type="mini-truck" route="route_01" depart="390" />
    <vehicle id="bus_19" type="bus" route="route_01" depart="390" />
    <vehicle id="car_53" type="car" route="route_03" depart="400" />
    <vehicle id="car_54" type="car" route="route_01" depart="410" />
    <vehicle id="car_55" type="van" route="route_01" depart="410" />
    <vehicle id="car_56" type="car" route="route_04" depart="420" />
    <vehicle id="car_57" type="van" route="route_04" depart="420" />
    <vehicle id="bus_20" type="bus" route="route_04" depart="420" />
    <vehicle id="car_58" type="car" route="route_02" depart="430" />
    <vehicle id="truck_26" type="mini-truck" route="route_02" depart="430" />
    <vehicle id="car_59" type="car" route="route_01" depart="440" />
    <vehicle id="car_60" type="car" route="route_03" depart="450" />
    <vehicle id="car_61" type="van" route="route_03" depart="450" />
    <vehicle id="bus_21" type="bus" route="route_03" depart="450" />
    <vehicle id="car_62" type="car" route="route_04" depart="460" />
    <vehicle id="car_63" type="van" route="route_04" depart="460" />
    <vehicle id="bus_22" type="bus" route="route_04" depart="460" />
    <vehicle id="motorcycle_15" type="motorcycle" route="route_04" depart="460" />
    <vehicle id="car_64" type="car" route="route_02" depart="470" />
    <vehicle id="car_65" type="van" route="route_02" depart="470" />
    <vehicle id="bus_23" type="bus" route="route_02" depart="470" />
    <vehicle id="bicycle_5" type="bicycle" route="route_02" depart="470" />
    <vehicle id="car_66" type="car" route="route_03" depart="480" />
    <vehicle id="car_67" type="car" route="route_02" depart="490" />
    <vehicle id="truck_27" type="mini-truck" route="route_02" depart="490" />
    <vehicle id="truck_28" type="trailer" route="route_02" depart="490" />
    <vehicle id="car_68" type="car" route="route_01" depart="500" />
    <vehicle id="truck_29" type="mini-truck" route="route_01" depart="500" />
    <vehicle id="bus_24" type="bus" route="route_01" depart="500" />
    <vehicle id="car_69" type="car" route="route_03" depart="510" />
    <vehicle id="truck_30" type="mini-truck" route="route_03" depart="510" />
    <vehicle id="car_70" type="car" route="route_01" depart="520" />
    <vehicle id="car_71" type="van" route="route_01" depart="520" />
    <vehicle id="bus_25" type="bus" route="route_01" depart="520" />
    <vehicle id="car_72" type="car" route="route_04" depart="530" />
    <vehicle id="bus_26" type="bus" route="route_04" depart="530" />
    <vehicle id="bus_27" type="bus" route="route_03" depart="540" />
    <vehicle id="truck_31" type="trailer" route="route_04" depart="550" />
    <vehicle id="car_73" type="car" route="route_02" depart="560" />
    <vehicle id="car_74" type="van" route="route_02" depart="560" />
    <vehicle id="bus_28" type="bus" route="route_02" depart="560" />
    <vehicle id="bicycle_6" type="bicycle" route="route_02" depart="560" />
    <vehicle id="car_75" type="car" route="route_02" depart="570" />
    <vehicle id="truck_32" type="mini-truck" route="route_02" depart="570" />
    <vehicle id="truck_33" type="trailer" route="route_02" depart="570" />
    <vehicle id="car_76" type="car" route="route_04" depart="580" />
    <vehicle id="truck_34" type="mini-truck" route="route_04" depart="580" />
    <vehicle id="bus_29" type="bus" route="route_04" depart="580" />
    <vehicle id="motorcycle_16" type="motorcycle" route="route_04" depart="580" />
    <vehicle id="car_77" type="car" route="route_03" depart="590" />
    <vehicle id="car_78" type="car" route="route_02" depart="600" />
    <vehicle id="car_79" type="van" route="route_02" depart="600" />
    <vehicle id="bus_30" type="bus" route="route_02" depart="600" />
    <vehicle id="car_80" type="car" route="route_03" depart="610" />
    <vehicle id="truck_35" type="mini-truck" route="route_03" depart="610" />
    <vehicle id="truck_36" type="trailer" route="route_03" depart="610" />
    <vehicle id="motorcycle_17" type="motorcycle" route="route_03" depart="610" />
    <vehicle id="car_81" type="car" route="route_04" depart="620" />
    <vehicle id="truck_37" type="mini-truck" route="route_04" depart="620" />
    <vehicle id="car_82" type="car" route="route_02" depart="630" />
    <vehicle id="truck_38" type="mini-truck" route="route_02" depart="630" />
    <vehicle id="bicycle_7" type="bicycle" route="route_02" depart="630" />
    <vehicle id="car_83" type="car" route="route_04" depart="640" />
    <vehicle id="truck_39" type="mini-truck" route="route_04" depart="640" />
    <vehicle id="car_84" type="car" route="route_01" depart="650" />
    <vehicle id="truck_40" type="mini-truck" route="route_01" depart="650" />
    <vehicle id="bus_31" type="bus" route="route_01" depart="650" />
    <vehicle id="motorcycle_18" type="motorcycle" route="route_01" depart="650" />
    <vehicle id="car_85" type="car" route="route_04" depart="660" />
    <vehicle id="car_86" type="van" route="route_04" depart="660" />
    <vehicle id="truck_41" type="trailer" route="route_04" depart="660" />
    <vehicle id="motorcycle_19" type="motorcycle" route="route_04" depart="660" />
    <vehicle id="car_87" type="car" route="route_02" depart="670" />
    <vehicle id="truck_42" type="trailer" route="route_02" depart="670" />
    <vehicle id="car_88" type="car" route="route_04" depart="680" />
    <vehicle id="truck_43" type="mini-truck" route="route_04" depart="680" />
    <vehicle id="bus_32" type="bus" route="route_04" depart="680" />
    <vehicle id="car_89" type="car" route="route_04" depart="690" />
    <vehicle id="car_90" type="van" route="route_04" depart="690" />
    <vehicle id="motorcycle_20" type="motorcycle" route="route_04" depart="690" />
    <vehicle id="car_91" type="car" route="route_02" depart="700" />
    <vehicle id="car_92" type="van" route="route_02" depart="700" />
    <vehicle id="bus_33" type="bus" route="route_02" depart="700" />
    <vehicle id="motorcycle_21" type="motorcycle" route="route_02" depart="700" />
    <vehicle id="car_93" type="car" route="route_04" depart="710" />
    <vehicle id="truck_44" type="mini-truck" route="route_04" depart="710" />
    <vehicle id="bicycle_8" type="bicycle" route="route_04" depart="710" />
    <vehicle id="car_94" type="car" route="route_03" depart="720" />
    <vehicle id="car_95" type="van" route="route_03" depart="720" />
    <vehicle id="bus_34" type="bus" route="route_03" depart="720" />
    <vehicle id="motorcycle_22" type="motorcycle" route="route_03" depart="720" />
    <vehicle id="car_96" type="car" route="route_03" depart="730" />
    <vehicle id="truck_45" type="mini-truck" route="route_03" depart="730" />
    <vehicle id="truck_46" type="trailer" route="route_03" depart="730" />
    <vehicle id="bicycle_9" type="bicycle" route="route_03" depart="730" />
    <vehicle id="car_97" type="car" route="route_01" depart="740" />
    <vehicle id="car_98" type="van" route="route_01" depart="740" />
    <vehicle id="bus_35" type="bus" route="route_01" depart="740" />
    <vehicle id="bicycle_10" type="bicycle" route="route_01" depart="740" />
    <vehicle id="car_99" type="car" route="route_02" depart="750" />
    <vehicle id="truck_47" type="mini-truck" route="route_02" depart="750" />
    <vehicle id="bus_36" type="bus" route="route_02" depart="750" />
    <vehicle id="motorcycle_23" type="motorcycle" route="route_02" depart="750" />
    <vehicle id="car_100" type="car" route="route_01" depart="760" />
    <vehicle id="truck_48" type="mini-truck" route="route_01" depart="760" />
    <vehicle id="car_101" type="car" route="route_01" depart="770" />
    <vehicle id="truck_49" type="mini-truck" route="route_01" depart="770" />
    <vehicle id="car_102" type="car" route="route_04" depart="780" />
    <vehicle id="car_103" type="van" route="route_04" depart="780" />
    <vehicle id="truck_50" type="trailer" route="route_04" depart="780" />
    <vehicle id="car_104" type="car" route="route_01" depart="790" />
    <vehicle id="truck_51" type="mini-truck" route="route_01" depart="790" />
    <vehicle id="bus_37" type="bus" route="route_01" depart="790" />
    <vehicle id="motorcycle_24" type="motorcycle" route="route_01" depart="790" />
    <vehicle id="car_105" type="car" route="route_02" depart="800" />
    <vehicle id="truck_52" type="mini-truck" route="route_02" depart="800" />
    <vehicle id="car_106" type="van" route="route_04" depart="810" />
    <vehicle id="car_107" type="car" route="route_03" depart="820" />
    <vehicle id="car_108" type="van" route="route_03" depart="820" />
    <vehicle id="car_109" type="car" route="route_01" depart="830" />
    <vehicle id="car_110" type="van" route="route_01" depart="830" />
    <vehicle id="bus_38" type="bus" route="route_01" depart="830" />
    <vehicle id="car_111" type="van" route="route_01" depart="840" />
    <vehicle id="car_112" type="car" route="route_02" depart="850" />
    <vehicle id="truck_53" type="mini-truck" route="route_02" depart="850" />
    <vehicle id="bus_39" type="bus" route="route_02" depart="850" />
    <vehicle id="motorcycle_25" type="motorcycle" route="route_02" depart="850" />
    <vehicle id="car_113" type="car" route="route_01" depart="860" />
    <vehicle id="car_114" type="van" route="route_01" depart="860" />
    <vehicle id="truck_54" type="trailer" route="route_01" depart="860" />
    <vehicle id="car_115" type="car" route="route_03" depart="870" />
    <vehicle id="car_116" type="car" route="route_03" depart="880" />
    <vehicle id="truck_55" type="mini-truck" route="route_03" depart="880" />
    <vehicle id="car_117" type="car" route="route_02" depart="890" />
    <vehicle id="truck_56" type="mini-truck" route="route_02" depart="890" />
    <vehicle id="bus_40" type="bus" route="route_02" depart="890" />
    <vehicle id="bus_41" type="bus" route="route_01" depart="900" />
    <vehicle id="car_118" type="car" route="route_04" depart="910" />
    <vehicle id="car_119" type="car" route="route_04" depart="920" />
    <vehicle id="truck_57" type="mini-truck" route="route_04" depart="920" />
    <vehicle id="bus_42" type="bus" route="route_04" depart="920" />
    <vehicle id="bicycle_11" type="bicycle" route="route_04" depart="920" />
    <vehicle id="car_120" type="car" route="route_01" depart="930" />
    <vehicle id="car_121" type="van" route="route_01" depart="930" />
    <vehicle id="bus_43" type="bus" route="route_01" depart="930" />
    <vehicle id="car_122" type="car" route="route_04" depart="940" />
    <vehicle id="truck_58" type="mini-truck" route="route_04" depart="940" />
    <vehicle id="car_123" type="car" route="route_03" depart="950" />
    <vehicle id="car_124" type="van" route="route_03" depart="950" />
    <vehicle id="bus_44" type="bus" route="route_03" depart="950" />
    <vehicle id="bicycle_12" type="bicycle" route="route_03" depart="950" />
    <vehicle id="car_125" type="car" route="route_03" depart="960" />
    <vehicle id="truck_59" type="mini-truck" route="route_03" depart="960" />
    <vehicle id="car_126" type="car" route="route_01" depart="970" />
    <vehicle id="truck_60" type="mini-truck" route="route_01" depart="970" />
    <vehicle id="truck_61" type="mini-truck" route="route_04" depart="980" />
    <vehicle id="car_127" type="car" route="route_03" depart="990" />
    <vehicle id="truck_62" type="mini-truck" route="route_03" depart="990" />
    <vehicle id="truck_63" type="trailer" route="route_03" depart="990" />
    <vehicle id="car_128" type="car" route="route_01" depart="1000" />
    <vehicle id="car_129" type="car" route="route_03" depart="1010" />
    <vehicle id="truck_64" type="mini-truck" route="route_03" depart="1010" />
    <vehicle id="car_130" type="car" route="route_02" depart="1020" />
    <vehicle id="truck_65" type="mini-truck" route="route_02" depart="1020" />
    <vehicle id="bus_45" type="bus" route="route_02" depart="1020" />
    <vehicle id="car_131" type="car" route="route_02" depart="1030" />
    <vehicle id="truck_66" type="mini-truck" route="route_02" depart="1030" />
    <vehicle id="truck_67" type="trailer" route="route_02" depart="1030" />
    <vehicle id="motorcycle_26" type="motorcycle" route="route_02" depart="1030" />
    <vehicle id="car_132" type="car" route="route_04" depart="1040" />
    <vehicle id="truck_68" type="mini-truck" route="route_04" depart="1040" />
    <vehicle id="truck_69" type="trailer" route="route_04" depart="1040" />
    <vehicle id="bicycle_13" type="bicycle" route="route_04" depart="1040" />
    <vehicle id="car_133" type="car" route="route_02" depart="1050" />
    <vehicle id="car_134" type="car" route="route_03" depart="1060" />
    <vehicle id="car_135" type="van" route="route_03" depart="1060" />
    <vehicle id="bus_46" type="bus" route="route_03" depart="1060" />
    <vehicle id="car_136" type="car" route="route_03" depart="1070" />
    <vehicle id="car_137" type="van" route="route_03" depart="1070" />
    <vehicle id="bus_47" type="bus" route="route_03" depart="1070" />
    <vehicle id="car_138" type="car" route="route_02" depart="1080" />
    <vehicle id="truck_70" type="mini-truck" route="route_02" depart="1080" />
    <vehicle id="bus_48" type="bus" route="route_02" depart="1080" />
    <vehicle id="car_139" type="car" route="route_04" depart="1090" />
    <vehicle id="car_140" type="van" route="route_04" depart="1090" />
    <vehicle id="bus_49" type="bus" route="route_04" depart="1090" />
    <vehicle id="car_141" type="car" route="route_03" depart="1100" />
    <vehicle id="car_142" type="van" route="route_03" depart="1100" />
    <vehicle id="truck_71" type="trailer" route="route_03" depart="1100" />
    <vehicle id="car_143" type="car" route="route_03" depart="1110" />
    <vehicle id="car_144" type="car" route="route_03" depart="1120" />
    <vehicle id="car_145" type="van" route="route_03" depart="1120" />
    <vehicle id="truck_72" type="mini-truck" route="route_01" depart="1130" />
    <vehicle id="car_146" type="car" route="route_03" depart="1140" />
    <vehicle id="truck_73" type="mini-truck" route="route_03" depart="1140" />
    <vehicle id="bus_50" type="bus" route="route_03" depart="1140" />
    <vehicle id="car_147" type="car" route="route_01" depart="1150" />
    <vehicle id="truck_74" type="mini-truck" route="route_01" depart="1150" />
    <vehicle id="truck_75" type="trailer" route="route_01" depart="1150" />
    <vehicle id="motorcycle_27" type="motorcycle" route="route_01" depart="1150" />
    <vehicle id="car_148" type="car" route="route_02" depart="1160" />
    <vehicle id="bus_51" type="bus" route="route_02" depart="1160" />
    <vehicle id="car_149" type="car" route="route_03" depart="1170" />
    <vehicle id="car_150" type="van" route="route_03" depart="1180" />
    <vehicle id="car_151" type="car" route="route_04" depart="1190" />
    <vehicle id="truck_76" type="mini-truck" route="route_04" depart="1190" />
    <vehicle id="car_152" type="car" route="route_04" depart="1200" />
    <vehicle id="car_153" type="van" route="route_04" depart="1200" />
    <vehicle id="truck_77" type="trailer" route="route_04" depart="1200" />
    <vehicle id="car_154" type="car" route="route_02" depart="1210" />
    <vehicle id="car_155" type="van" route="route_02" depart="1210" />
    <vehicle id="car_156" type="car" route="route_01" depart="1220" />
    <vehicle id="car_157" type="van" route="route_01" depart="1220" />
    <vehicle id="bus_52" type="bus" route="route_01" depart="1220" />
    <vehicle id="car_158" type="car" route="route_03" depart="1230" />
    <vehicle id="car_159" type="van" route="route_03" depart="1230" />
    <vehicle id="bus_53" type="bus" route="route_03" depart="1230" />
    <vehicle id="motorcycle_28" type="motorcycle" route="route_03" depart="1230" />
    <vehicle id="car_160" type="car" route="route_04" depart="1240" />
    <vehicle id="car_161" type="van" route="route_04" depart="1240" />
    <vehicle id="car_162" type="car" route="route_03" depart="1250" />
    <vehicle id="car_163" type="van" route="route_03" depart="1250" />
    <vehicle id="bus_54" type="bus" route="route_03" depart="1250" />
    <vehicle id="bicycle_14" type="bicycle" route="route_03" depart="1250" />
    <vehicle id="car_164" type="van" route="route_01" depart="1260" />
    <vehicle id="car_165" type="car" route="route_03" depart="1270" />
    <vehicle id="car_166" type="van" route="route_03" depart="1270" />
    <vehicle id="bus_55" type="bus" route="route_03" depart="1270" />
    <vehicle id="motorcycle_29" type="motorcycle" route="route_03" depart="1270" />
    <vehicle id="car_167" type="car" route="route_02" depart="1280" />
    <vehicle id="car_168" type="van" route="route_02" depart="1280" />
    <vehicle id="bus_56" type="bus" route="route_02" depart="1280" />
    <vehicle id="motorcycle_30" type="motorcycle" route="route_02" depart="1280" />
    <vehicle id="car_169" type="car" route="route_01" depart="1290" />
    <vehicle id="car_170" type="van" route="route_01" depart="1290" />
    <vehicle id="bus_57" type="bus" route="route_01" depart="1290" />
    <vehicle id="motorcycle_31" type="motorcycle" route="route_01" depart="1290" />
    <vehicle id="car_171" type="car" route="route_02" depart="1300" />
    <vehicle id="car_172" type="car" route="route_01" depart="1310" />
    <vehicle id="car_173" type="van" route="route_01" depart="1310" />
    <vehicle id="bus_58" type="bus" route="route_01" depart="1310" />
    <vehicle id="car_174" type="car" route="route_02" depart="1320" />
    <vehicle id="truck_78" type="mini-truck" route="route_02" depart="1320" />
    <vehicle id="truck_79" type="trailer" route="route_02" depart="1320" />
    <vehicle id="car_175" type="car" route="route_03" depart="1330" />
    <vehicle id="car_176" type="van" route="route_03" depart="1330" />
    <vehicle id="bus_59" type="bus" route="route_03" depart="1330" />
    <vehicle id="car_177" type="car" route="route_01" depart="1340" />
    <vehicle id="truck_80" type="mini-truck" route="route_01" depart="1340" />
    <vehicle id="truck_81" type="trailer" route="route_01" depart="1340" />
    <vehicle id="car_178" type="car" route="route_03" depart="1350" />
    <vehicle id="car_179" type="van" route="route_03" depart="1350" />
    <vehicle id="car_180" type="car" route="route_02" depart="1360" />
    <vehicle id="truck_82" type="mini-truck" route="route_02" depart="1360" />
    <vehicle id="bus_60" type="bus" route="route_02" depart="1360" />
    <vehicle id="car_181" type="car" route="route_02" depart="1370" />
    <vehicle id="car_182" type="van" route="route_02" depart="1370" />
    <vehicle id="car_183" type="car" route="route_01" depart="1380" />
    <vehicle id="car_184" type="van" route="route_01" depart="1380" />
    <vehicle id="car_185" type="car" route="route_02" depart="1390" />
    <vehicle id="car_186" type="van" route="route_02" depart="1390" />
    <vehicle id="truck_83" type="trailer" route="route_02" depart="1390" />
    <vehicle id="car_187" type="car" route="route_02" depart="1400" />
    <vehicle id="car_188" type="car" route="route_02" depart="1410" />
    <vehicle id="truck_84" type="mini-truck" route="route_02" depart="1410" />
    <vehicle id="bus_61" type="bus" route="route_02" depart="1410" />
    <vehicle id="bicycle_15" type="bicycle" route="route_02" depart="1410" />
    <vehicle id="car_189" type="car" route="route_02" depart="1420" />
    <vehicle id="truck_85" type="mini-truck" route="route_02" depart="1420" />
    <vehicle id="truck_86" type="trailer" route="route_02" depart="1420" />
    <vehicle id="bicycle_16" type="bicycle" route="route_02" depart="1420" />
    <vehicle id="car_190" type="car" route="route_02" depart="1430" />
    <vehicle id="car_191" type="car" route="route_01" depart="1440" />
    <vehicle id="car_192" type="van" route="route_01" depart="1440" />
    <vehicle id="bus_62" type="bus" route="route_01" depart="1440" />
    <vehicle id="car_193" type="car" route="route_02" depart="1450" />
    <vehicle id="bus_63" type="bus" route="route_02" depart="1450" />
    <vehicle id="truck_87" type="mini-truck" route="route_03" depart="1460" />
    <vehicle id="car_194" type="car" route="route_01" depart="1470" />
    <vehicle id="bus_64" type="bus" route="route_01" depart="1470" />
    <vehicle id="truck_88" type="mini-truck" route="route_03" depart="1480" />
    <vehicle id="car_195" type="car" route="route_02" depart="1490" />
    <vehicle id="car_196" type="van" route="route_02" depart="1490" />
    <vehicle id="motorcycle_32" type="motorcycle" route="route_02" depart="1490" />
    <vehicle id="car_197" type="car" route="route_03" depart="1500" />
    <vehicle id="car_198" type="van" route="route_03" depart="1500" />
    <vehicle id="truck_89" type="trailer" route="route_03" depart="1500" />
    <vehicle id="bicycle_17" type="bicycle" route="route_03" depart="1500" />
    <vehicle id="car_199" type="car" route="route_04" depart="1510" />
    <vehicle id="car_200" type="car" route="route_03" depart="1520" />
    <vehicle id="truck_90" type="mini-truck" route="route_03" depart="1520" />