<?xml version="1.0" encoding="UTF-8"?>

<!-- generated on 2023-03-26 03:05:00 by Eclipse SUMO netedit Version 1.16.0
<configuration xmlns:xsi="http://www.w3.org/2001/XMLSchema-instance" xsi:noNamespaceSchemaLocation="http://sumo.dlr.de/xsd/netconvertConfiguration.xsd">

    <input>
        <sumo-net-file value="C:\Rohak\SUMO-traffic-junction-simulation\myJunction_v2\data\myJunction.net.xml"/>
    </input>

    <output>
        <output-file value="C:\Rohak\SUMO-traffic-junction-simulation\myJunction_v2\data\myJunction.net.xml"/>
    </output>

    <processing>
        <geometry.min-radius.fix.railways value="false"/>
        <geometry.max-grade.fix value="false"/>
        <offset.disable-normalization value="true"/>
        <lefthand value="0"/>
    </processing>

    <junctions>
        <no-turnarounds value="true"/>
        <junctions.corner-detail value="5"/>
        <junctions.limit-turn-speed value="5.50"/>
        <rectangular-lane-cut value="0"/>
    </junctions>

    <pedestrian>
        <walkingareas value="0"/>
    </pedestrian>

</configuration>
-->

<net version="1.16" junctionCornerDetail="5" limitTurnSpeed="5.50" xmlns:xsi="http://www.w3.org/2001/XMLSchema-instance" xsi:noNamespaceSchemaLocation="http://sumo.dlr.de/xsd/net_file.xsd">

    <location netOffset="0.00,0.00" convBoundary="-2000.00,-2000.00,2000.00,2000.00" origBoundary="-10000000000.00,-10000000000.00,10000000000.00,10000000000.00" projParameter="!"/>

    <edge id=":East_0" function="internal">
        <lane id=":East_0_0" index="0" speed="9.73" length="21.49" shape="1992.84,-9.42 1996.37,-4.71 1997.55,-0.00 1996.37,4.71 1992.84,9.42"/>
    </edge>
    <edge id=":East_1" function="internal">
        <lane id=":East_1_0" index="0" speed="7.42" length="9.49" shape="1992.84,-9.42 1996.69,-4.60 1997.19,-1.32"/>
    </edge>
    <edge id=":East_6" function="internal">
        <lane id=":East_6_0" index="0" speed="7.42" length="9.82" shape="1997.19,-1.32 1997.21,-1.16 1994.41,0.91 1988.27,1.60"/>
    </edge>
    <edge id=":East_2" function="internal">
        <lane id=":East_2_0" index="0" speed="5.47" length="9.74" shape="1988.27,-1.60 1991.37,-1.95 1992.78,-2.99 1992.52,-4.73 1990.58,-7.16"/>
    </edge>
    <edge id=":East_3" function="internal">
        <lane id=":East_3_0" index="0" speed="7.42" length="19.31" shape="1988.27,-1.60 1994.41,-0.91 1997.21,1.16 1996.69,4.60 1992.84,9.42"/>
    </edge>
    <edge id=":East_4" function="internal">
        <lane id=":East_4_0" index="0" speed="5.47" length="9.74" shape="1990.58,7.16 1992.52,4.73 1992.78,2.99 1991.37,1.95 1988.27,1.60"/>
    </edge>
    <edge id=":East_5" function="internal">
        <lane id=":East_5_0" index="0" speed="8.54" length="16.33" shape="1990.58,7.16 1993.26,3.58 1994.16,-0.00 1993.26,-3.58 1990.58,-7.16"/>
    </edge>
    <edge id=":Junction_0" function="internal">
        <lane id=":Junction_0_0" index="0" speed="13.89" length="14.40" shape="-1.60,7.20 -1.60,-7.20"/>
    </edge>
    <edge id=":Junction_1" function="internal">
        <lane id=":Junction_1_0" index="0" speed="13.89" length="14.40" shape="7.20,1.60 -7.20,1.60"/>
    </edge>
    <edge id=":Junction_2" function="internal">
        <lane id=":Junction_2_0" index="0" speed="13.89" length="14.40" shape="1.60,-7.20 1.60,7.20"/>
    </edge>
    <edge id=":Junction_3" function="internal">
        <lane id=":Junction_3_0" index="0" speed="13.89" length="14.40" shape="-7.20,-1.60 7.20,-1.60"/>
    </edge>
    <edge id=":North_0" function="internal">
        <lane id=":North_0_0" index="0" speed="9.73" length="21.49" shape="9.42,1992.84 4.71,1996.37 0.00,1997.55 -4.71,1996.37 -9.42,1992.84"/>
    </edge>
    <edge id=":North_1" function="internal">
        <lane id=":North_1_0" index="0" speed="7.42" length="9.49" shape="9.42,1992.84 4.60,1996.69 1.32,1997.19"/>
    </edge>
    <edge id=":North_6" function="internal">
        <lane id=":North_6_0" index="0" speed="7.42" length="9.82" shape="1.32,1997.19 1.16,1997.21 -0.91,1994.41 -1.60,1988.27"/>
    </edge>
    <edge id=":North_2" function="internal">
        <lane id=":North_2_0" index="0" speed="5.47" length="9.74" shape="1.60,1988.27 1.95,1991.37 2.99,1992.78 4.73,1992.52 7.16,1990.58"/>
    </edge>
    <edge id=":North_3" function="internal">
        <lane id=":North_3_0" index="0" speed="7.42" length="19.31" shape="1.60,1988.27 0.91,1994.41 -1.16,1997.21 -4.60,1996.69 -9.42,1992.84"/>
    </edge>
    <edge id=":North_4" function="internal">
        <lane id=":North_4_0" index="0" speed="5.47" length="9.74" shape="-7.16,1990.58 -4.73,1992.52 -2.99,1992.78 -1.95,1991.37 -1.60,1988.27"/>
    </edge>
    <edge id=":North_5" function="internal">
        <lane id=":North_5_0" index="0" speed="8.54" length="16.33" shape="-7.16,1990.58 -3.58,1993.26 -0.00,1994.16 3.58,1993.26 7.16,1990.58"/>
    </edge>
    <edge id=":North_East_0" function="internal">
        <lane id=":North_East_0_0" index="0" speed="13.89" length="0.10" shape="501.13,1501.13 501.13,1501.13"/>
    </edge>
    <edge id=":North_East_1" function="internal">
        <lane id=":North_East_1_0" index="0" speed="13.89" length="0.10" shape="498.87,1498.87 498.87,1498.87"/>
    </edge>
    <edge id=":North_West_0" function="internal">
        <lane id=":North_West_0_0" index="0" speed="13.89" length="0.10" shape="-501.13,1501.13 -501.13,1501.13"/>
    </edge>
    <edge id=":North_West_1" function="internal">
        <lane id=":North_West_1_0" index="0" speed="13.89" length="0.10" shape="-498.87,1498.87 -498.87,1498.87"/>
    </edge>
    <edge id=":South_0" function="internal">
        <lane id=":South_0_0" index="0" speed="5.47" length="9.74" shape="-1.60,-1988.27 -1.95,-1991.37 -2.99,-1992.78 -4.73,-1992.52 -7.16,-1990.58"/>
    </edge>
    <edge id=":South_1" function="internal">
        <lane id=":South_1_0" index="0" speed="7.42" length="19.31" shape="-1.60,-1988.27 -0.91,-1994.41 1.16,-1997.21 4.60,-1996.69 9.42,-1992.84"/>
    </edge>
    <edge id=":South_2" function="internal">
        <lane id=":South_2_0" index="0" speed="5.47" length="9.74" shape="7.16,-1990.58 4.73,-1992.52 2.99,-1992.78 1.95,-1991.37 1.60,-1988.27"/>
    </edge>
    <edge id=":South_3" function="internal">
        <lane id=":South_3_0" index="0" speed="8.54" length="16.33" shape="7.16,-1990.58 3.58,-1993.26 0.00,-1994.16 -3.58,-1993.26 -7.16,-1990.58"/>
    </edge>
    <edge id=":South_4" function="internal">
        <lane id=":South_4_0" index="0" speed="9.73" length="21.49" shape="-9.42,-1992.84 -4.71,-1996.37 -0.00,-1997.55 4.71,-1996.37 9.42,-1992.84"/>
    </edge>
    <edge id=":South_5" function="internal">
        <lane id=":South_5_0" index="0" speed="7.42" length="9.49" shape="-9.42,-1992.84 -4.60,-1996.69 -1.32,-1997.19"/>
    </edge>
    <edge id=":South_6" function="internal">
        <lane id=":South_6_0" index="0" speed="7.42" length="9.82" shape="-1.32,-1997.19 -1.16,-1997.21 0.91,-1994.41 1.60,-1988.27"/>
    </edge>
    <edge id=":South_East_0" function="internal">
        <lane id=":South_East_0_0" index="0" speed="13.89" length="0.10" shape="498.87,-1498.87 498.87,-1498.87"/>
    </edge>
    <edge id=":South_East_1" function="internal">
        <lane id=":South_East_1_0" index="0" speed="13.89" length="0.10" shape="501.13,-1501.13 501.13,-1501.13"/>
    </edge>
    <edge id=":South_West_0" function="internal">
        <lane id=":South_West_0_0" index="0" speed="13.89" length="0.10" shape="-498.87,-1498.87 -498.87,-1498.87"/>
    </edge>
    <edge id=":South_West_1" function="internal">
        <lane id=":South_West_1_0" index="0" speed="13.89" length="0.10" shape="-501.13,-1501.13 -501.13,-1501.13"/>
    </edge>
    <edge id=":West_0" function="internal">
        <lane id=":West_0_0" index="0" speed="9.73" length="21.49" shape="-1992.84,9.42 -1996.37,4.71 -1997.55,0.00 -1996.37,-4.71 -1992.84,-9.42"/>
    </edge>
    <edge id=":West_1" function="internal">
        <lane id=":West_1_0" index="0" speed="7.42" length="9.49" shape="-1992.84,9.42 -1996.69,4.60 -1997.19,1.32"/>
    </edge>
    <edge id=":West_6" function="internal">
        <lane id=":West_6_0" index="0" speed="7.42" length="9.82" shape="-1997.19,1.32 -1997.21,1.16 -1994.41,-0.91 -1988.27,-1.60"/>
    </edge>
    <edge id=":West_2" function="internal">
        <lane id=":West_2_0" index="0" speed="5.47" length="9.74" shape="-1988.27,1.60 -1991.37,1.95 -1992.78,2.99 -1992.52,4.73 -1990.58,7.16"/>
    </edge>
    <edge id=":West_3" function="internal">
        <lane id=":West_3_0" index="0" speed="7.42" length="19.31" shape="-1988.27,1.60 -1994.41,0.91 -1997.21,-1.16 -1996.69,-4.60 -1992.84,-9.42"/>
    </edge>
    <edge id=":West_4" function="internal">
        <lane id=":West_4_0" index="0" speed="5.47" length="9.74" shape="-1990.58,-7.16 -1992.52,-4.73 -1992.78,-2.99 -1991.37,-1.95 -1988.27,-1.60"/>
    </edge>
    <edge id=":West_5" function="internal">
        <lane id=":West_5_0" index="0" speed="8.54" length="16.33" shape="-1990.58,-7.16 -1993.26,-3.58 -1994.16,0.00 -1993.26,3.58 -1990.58,7.16"/>
    </edge>

    <edge id="EtoJ" from="East" to="Junction" priority="-1">
        <lane id="EtoJ_0" index="0" speed="13.89" length="1981.07" shape="1988.27,1.60 7.20,1.60"/>
    </edge>
    <edge id="EtoNE" from="East" to="North_East" priority="-1">
        <lane id="EtoNE_0" index="0" speed="13.89" length="2109.59" shape="1992.84,9.42 501.13,1501.13"/>
    </edge>
    <edge id="EtoSE" from="East" to="South_East" priority="-1">
        <lane id="EtoSE_0" index="0" speed="13.89" length="2109.59" shape="1990.58,-7.16 498.87,-1498.87"/>
    </edge>
    <edge id="JtoE" from="Junction" to="East" priority="-1">
        <lane id="JtoE_0" index="0" speed="13.89" length="1981.07" shape="7.20,-1.60 1988.27,-1.60"/>
    </edge>
    <edge id="JtoN" from="Junction" to="North" priority="-1">
        <lane id="JtoN_0" index="0" speed="13.89" length="1981.07" shape="1.60,7.20 1.60,1988.27"/>
    </edge>
    <edge id="JtoS" from="Junction" to="South" priority="-1">
        <lane id="JtoS_0" index="0" speed="13.89" length="1981.07" shape="-1.60,-7.20 -1.60,-1988.27"/>
    </edge>
    <edge id="JtoW" from="Junction" to="West" priority="-1">
        <lane id="JtoW_0" index="0" speed="13.89" length="1981.07" shape="-7.20,1.60 -1988.27,1.60"/>
    </edge>
    <edge id="NEtoE" from="North_East" to="East" priority="-1">
        <lane id="NEtoE_0" index="0" speed="13.89" length="2109.59" shape="498.87,1498.87 1990.58,7.16"/>
    </edge>
    <edge id="NEtoN" from="North_East" to="North" priority="-1">
        <lane id="NEtoN_0" index="0" speed="13.89" length="695.38" shape="501.13,1501.13 9.42,1992.84"/>
    </edge>
    <edge id="NWtoN" from="North_West" to="North" priority="-1">
        <lane id="NWtoN_0" index="0" speed="13.89" length="695.38" shape="-498.87,1498.87 -7.16,1990.58"/>
    </edge>
    <edge id="NWtoW" from="North_West" to="West" priority="-1">
        <lane id="NWtoW_0" index="0" speed="13.89" length="2109.59" shape="-501.13,1501.13 -1992.84,9.42"/>
    </edge>
    <edge id="NtoJ" from="North" to="Junction" priority="-1">
        <lane id="NtoJ_0" index="0" speed="13.89" length="1981.07" shape="-1.60,1988.27 -1.60,7.20"/>
    </edge>
    <edge id="NtoNE" from="North" to="North_East" priority="-1">
        <lane id="NtoNE_0" index="0" speed="13.89" length="695.38" shape="7.16,1990.58 498.87,1498.87"/>
    </edge>
    <edge id="NtoNW" from="North" to="North_West" priority="-1">
        <lane id="NtoNW_0" index="0" speed="13.89" length="695.38" shape="-9.42,1992.84 -501.13,1501.13"/>
    </edge>
    <edge id="SEtoE" from="South_East" to="East" priority="-1">
        <lane id="SEtoE_0" index="0" speed="13.89" length="2109.59" shape="501.13,-1501.13 1992.84,-9.42"/>
    </edge>
    <edge id="SEtoS" from="South_East" to="South" priority="-1">
        <lane id="SEtoS_0" index="0" speed="13.89" length="695.38" shape="498.87,-1498.87 7.16,-1990.58"/>
    </edge>
    <edge id="SWtoS" from="South_West" to="South" priority="-1">
        <lane id="SWtoS_0" index="0" speed="13.89" length="695.38" shape="-501.13,-1501.13 -9.42,-1992.84"/>
    </edge>
    <edge id="SWtoW" from="South_West" to="West" priority="-1">
        <lane id="SWtoW_0" index="0" speed="13.89" length="2109.59" shape="-498.87,-1498.87 -1990.58,-7.16"/>
    </edge>
    <edge id="StoJ" from="South" to="Junction" priority="-1">
        <lane id="StoJ_0" index="0" speed="13.89" length="1981.07" shape="1.60,-1988.27 1.60,-7.20"/>
    </edge>
    <edge id="StoSE" from="South" to="South_East" priority="-1">
        <lane id="StoSE_0" index="0" speed="13.89" length="695.38" shape="9.42,-1992.84 501.13,-1501.13"/>
    </edge>
    <edge id="StoSW" from="South" to="South_West" priority="-1">
        <lane id="StoSW_0" index="0" speed="13.89" length="695.38" shape="-7.16,-1990.58 -498.87,-1498.87"/>
    </edge>
    <edge id="WtoJ" from="West" to="Junction" priority="-1">
        <lane id="WtoJ_0" index="0" speed="13.89" length="1981.07" shape="-1988.27,-1.60 -7.20,-1.60"/>
    </edge>
    <edge id="WtoNW" from="West" to="North_West" priority="-1">
        <lane id="WtoNW_0" index="0" speed="13.89" length="2109.59" shape="-1990.58,7.16 -498.87,1498.87"/>
    </edge>
    <edge id="WtoSW" from="West" to="South_West" priority="-1">
        <lane id="WtoSW_0" index="0" speed="13.89" length="2109.59" shape="-1992.84,-9.42 -501.13,-1501.13"/>
    </edge>

    <tlLogic id="Junction" type="static" programID="0" offset="0">
        <phase duration="30" state="GGgrrrGGgrrr"/>
        <phase duration="6"  state="yyyrrryyyrrr"/>
        <phase duration="30" state="rrrGGgrrrGGg"/>
        <phase duration="6"  state="rrryyyrrryyy"/>
    </tlLogic>

    <junction id="East" type="priority" x="2000.00" y="0.00" incLanes="SEtoE_0 JtoE_0 NEtoE_0" intLanes=":East_0_0 :East_6_0 :East_2_0 :East_3_0 :East_4_0 :East_5_0" shape="1993.97,-10.55 1989.45,-6.03 1990.57,-4.46 1990.57,-3.91 1990.18,-3.51 1989.42,-3.28 1988.27,-3.20 1988.27,3.20 1990.18,3.51 1990.57,3.91 1990.57,4.46 1990.20,5.16 1989.45,6.03 1993.97,10.55 1996.90,7.04 1998.66,3.52 1999.25,-0.00 1998.66,-3.52 1996.90,-7.04">
        <request index="0" response="000000" foes="001000" cont="0"/>
        <request index="1" response="110000" foes="111000" cont="1"/>
        <request index="2" response="100000" foes="100000" cont="0"/>
        <request index="3" response="100011" foes="100011" cont="0"/>
        <request index="4" response="000000" foes="000010" cont="0"/>
        <request index="5" response="000000" foes="001110" cont="0"/>
    </junction>
    <junction id="Junction" type="traffic_light" x="0.00" y="0.00" incLanes="NtoJ_0 EtoJ_0 StoJ_0 WtoJ_0" intLanes=":Junction_0_0 :Junction_1_0 :Junction_2_0 :Junction_3_0" shape="-3.20,7.20 3.20,7.20 3.64,4.98 4.20,4.20 4.98,3.64 5.98,3.31 7.20,3.20 7.20,-3.20 4.98,-3.64 4.20,-4.20 3.64,-4.98 3.31,-5.98 3.20,-7.20 -3.20,-7.20 -3.64,-4.98 -4.20,-4.20 -4.98,-3.64 -5.98,-3.31 -7.20,-3.20 -7.20,3.20 -4.98,3.64 -4.20,4.20 -3.64,4.98 -3.31,5.98">
        <request index="0" response="0000" foes="1010" cont="0"/>
        <request index="1" response="0101" foes="0101" cont="0"/>
        <request index="2" response="0000" foes="1010" cont="0"/>
        <request index="3" response="0101" foes="0101" cont="0"/>
    </junction>
    <junction id="North" type="priority" x="0.00" y="2000.00" incLanes="NEtoN_0 JtoN_0 NWtoN_0" intLanes=":North_0_0 :North_6_0 :North_2_0 :North_3_0 :North_4_0 :North_5_0" shape="10.55,1993.97 6.03,1989.45 4.46,1990.57 3.91,1990.57 3.51,1990.18 3.28,1989.42 3.20,1988.27 -3.20,1988.27 -3.51,1990.18 -3.91,1990.57 -4.46,1990.57 -5.16,1990.20 -6.03,1989.45 -10.55,1993.97 -7.04,1996.90 -3.52,1998.66 0.00,1999.25 3.52,1998.66 7.04,1996.90">
        <request index="0" response="000000" foes="001000" cont="0"/>
        <request index="1" response="110000" foes="111000" cont="1"/>
        <request index="2" response="100000" foes="100000" cont="0"/>
        <request index="3" response="100011" foes="100011" cont="0"/>
        <request index="4" response="000000" foes="000010" cont="0"/>
        <request index="5" response="000000" foes="001110" cont="0"/>
    </junction>
    <junction id="North_East" type="priority" x="500.00" y="1500.00" incLanes="EtoNE_0 NtoNE_0" intLanes=":North_East_0_0 :North_East_1_0" shape="502.26,1502.26 497.74,1497.74 502.26,1502.26">
        <request index="0" response="00" foes="00" cont="0"/>
        <request index="1" response="00" foes="00" cont="0"/>
    </junction>
    <junction id="North_West" type="priority" x="-500.00" y="1500.00" incLanes="NtoNW_0 WtoNW_0" intLanes=":North_West_0_0 :North_West_1_0" shape="-502.26,1502.26 -497.74,1497.74 -502.26,1502.26">
        <request index="0" response="00" foes="00" cont="0"/>
        <request index="1" response="00" foes="00" cont="0"/>
    </junction>
    <junction id="South" type="priority" x="0.00" y="-2000.00" incLanes="JtoS_0 SEtoS_0 SWtoS_0" intLanes=":South_0_0 :South_1_0 :South_2_0 :South_3_0 :South_4_0 :South_6_0" shape="-3.20,-1988.27 3.20,-1988.27 3.51,-1990.18 3.91,-1990.57 4.46,-1990.57 5.16,-1990.20 6.03,-1989.45 10.55,-1993.97 7.04,-1996.90 3.52,-1998.66 -0.00,-1999.25 -3.52,-1998.66 -7.04,-1996.90 -10.55,-1993.97 -6.03,-1989.45 -4.46,-1990.57 -3.91,-1990.57 -3.51,-1990.18 -3.28,-1989.42">
        <request index="0" response="001000" foes="001000" cont="0"/>
        <request index="1" response="111000" foes="111000" cont="0"/>
        <request index="2" response="000000" foes="100000" cont="0"/>
        <request index="3" response="000000" foes="100011" cont="0"/>
        <request index="4" response="000000" foes="000010" cont="0"/>
        <request index="5" response="001100" foes="001110" cont="1"/>
    </junction>
    <junction id="South_East" type="priority" x="500.00" y="-1500.00" incLanes="EtoSE_0 StoSE_0" intLanes=":South_East_0_0 :South_East_1_0" shape="497.74,-1497.74 502.26,-1502.26 497.74,-1497.74">
        <request index="0" response="00" foes="00" cont="0"/>
        <request index="1" response="00" foes="00" cont="0"/>
    </junction>
    <junction id="South_West" type="priority" x="-500.00" y="-1500.00" incLanes="StoSW_0 WtoSW_0" intLanes=":South_West_0_0 :South_West_1_0" shape="-497.74,-1497.74 -502.26,-1502.26 -497.74,-1497.74">
        <request index="0" response="00" foes="00" cont="0"/>
        <request index="1" response="00" foes="00" cont="0"/>
    </junction>
    <junction id="West" type="priority" x="-2000.00" y="0.00" incLanes="NWtoW_0 JtoW_0 SWtoW_0" intLanes=":West_0_0 :West_6_0 :West_2_0 :West_3_0 :West_4_0 :West_5_0" shape="-1993.97,10.55 -1989.45,6.03 -1990.57,4.46 -1990.57,3.91 -1990.18,3.51 -1989.42,3.28 -1988.27,3.20 -1988.27,-3.20 -1990.18,-3.51 -1990.57,-3.91 -1990.57,-4.46 -1990.20,-5.16 -1989.45,-6.03 -1993.97,-10.55 -1996.90,-7.04 -1998.66,-3.52 -1999.25,0.00 -1998.66,3.52 -1996.90,7.04">
        <request index="0" response="000000" foes="001000" cont="0"/>
        <request index="1" response="110000" foes="111000" cont="1"/>
        <request index="2" response="100000" foes="100000" cont="0"/>
        <request index="3" response="100011" foes="100011" cont="0"/>
        <request index="4" response="000000" foes="000010" cont="0"/>
        <request index="5" response="000000" foes="001110" cont="0"/>
    </junction>

    <junction id=":East_6_0" type="internal" x="1997.19" y="-1.32" incLanes=":East_1_0 NEtoE_0" intLanes=":East_3_0 :East_4_0 :East_5_0"/>
    <junction id=":North_6_0" type="internal" x="1.32" y="1997.19" incLanes=":North_1_0 NWtoN_0" intLanes=":North_3_0 :North_4_0 :North_5_0"/>
    <junction id=":South_6_0" type="internal" x="-1.32" y="-1997.19" incLanes=":South_5_0 SEtoS_0" intLanes=":South_1_0 :South_2_0 :South_3_0"/>
    <junction id=":West_6_0" type="internal" x="-1997.19" y="1.32" incLanes=":West_1_0 SWtoW_0" intLanes=":West_3_0 :West_4_0 :West_5_0"/>

    <connection from="EtoJ" to="JtoW" fromLane="0" toLane="0" via=":Junction_1_0" tl="Junction" linkIndex="4" dir="s" state="o"/>
    <connection from="EtoNE" to="NEtoN" fromLane="0" toLane="0" via=":North_East_0_0" dir="s" state="M"/>
    <connection from="EtoSE" to="SEtoS" fromLane="0" toLane="0" via=":South_East_0_0" dir="s" state="M"/>
    <connection from="JtoE" to="EtoSE" fromLane="0" toLane="0" via=":East_2_0" dir="r" state="m"/>
    <connection from="JtoE" to="EtoNE" fromLane="0" toLane="0" via=":East_3_0" dir="l" state="m"/>
    <connection from="JtoN" to="NtoNE" fromLane="0" toLane="0" via=":North_2_0" dir="r" state="m"/>
    <connection from="JtoN" to="NtoNW" fromLane="0" toLane="0" via=":North_3_0" dir="l" state="m"/>
    <connection from="JtoS" to="StoSW" fromLane="0" toLane="0" via=":South_0_0" dir="r" state="m"/>
    <connection from="JtoS" to="StoSE" fromLane="0" toLane="0" via=":South_1_0" dir="l" state="m"/>
    <connection from="JtoW" to="WtoNW" fromLane="0" toLane="0" via=":West_2_0" dir="r" state="m"/>
    <connection from="JtoW" to="WtoSW" fromLane="0" toLane="0" via=":West_3_0" dir="l" state="m"/>
    <connection from="NEtoE" to="EtoJ" fromLane="0" toLane="0" via=":East_4_0" dir="r" state="M"/>
    <connection from="NEtoE" to="EtoSE" fromLane="0" toLane="0" via=":East_5_0" dir="R" state="M"/>
    <connection from="NEtoN" to="NtoNW" fromLane="0" toLane="0" via=":North_0_0" dir="L" state="M"/>
    <connection from="NEtoN" to="NtoJ" fromLane="0" toLane="0" via=":North_1_0" dir="l" state="m"/>
    <connection from="NWtoN" to="NtoJ" fromLane="0" toLane="0" via=":North_4_0" dir="r" state="M"/>
    <connection from="NWtoN" to="NtoNE" fromLane="0" toLane="0" via=":North_5_0" dir="R" state="M"/>
    <connection from="NWtoW" to="WtoSW" fromLane="0" toLane="0" via=":West_0_0" dir="L" state="M"/>
    <connection from="NWtoW" to="WtoJ" fromLane="0" toLane="0" via=":West_1_0" dir="l" state="m"/>
    <connection from="NtoJ" to="JtoS" fromLane="0" toLane="0" via=":Junction_0_0" tl="Junction" linkIndex="1" dir="s" state="O"/>
    <connection from="NtoNE" to="NEtoE" fromLane="0" toLane="0" via=":North_East_1_0" dir="s" state="M"/>
    <connection from="NtoNW" to="NWtoW" fromLane="0" toLane="0" via=":North_West_0_0" dir="s" state="M"/>
    <connection from="SEtoE" to="EtoNE" fromLane="0" toLane="0" via=":East_0_0" dir="L" state="M"/>
    <connection from="SEtoE" to="EtoJ" fromLane="0" toLane="0" via=":East_1_0" dir="l" state="m"/>
    <connection from="SEtoS" to="StoJ" fromLane="0" toLane="0" via=":South_2_0" dir="r" state="M"/>
    <connection from="SEtoS" to="StoSW" fromLane="0" toLane="0" via=":South_3_0" dir="R" state="M"/>
    <connection from="SWtoS" to="StoSE" fromLane="0" toLane="0" via=":South_4_0" dir="L" state="M"/>
    <connection from="SWtoS" to="StoJ" fromLane="0" toLane="0" via=":South_5_0" dir="l" state="m"/>
    <connection from="SWtoW" to="WtoJ" fromLane="0" toLane="0" via=":West_4_0" dir="r" state="M"/>
    <connection from="SWtoW" to="WtoNW" fromLane="0" toLane="0" via=":West_5_0" dir="R" state="M"/>
    <connection from="StoJ" to="JtoN" fromLane="0" toLane="0" via=":Junction_2_0" tl="Junction" linkIndex="7" dir="s" state="O"/>
    <connection from="StoSE" to="SEtoE" fromLane="0" toLane="0" via=":South_East_1_0" dir="s" state="M"/>
    <connection from="StoSW" to="SWtoW" fromLane="0" toLane="0" via=":South_West_0_0" dir="s" state="M"/>
    <connection from="WtoJ" to="JtoE" fromLane="0" toLane="0" via=":Junction_3_0" tl="Junction" linkIndex="10" dir="s" state="o"/>
    <connection from="WtoNW" to="NWtoN" fromLane="0" toLane="0" via=":North_West_1_0" dir="s" state="M"/>
    <connection from="WtoSW" to="SWtoS" fromLane="0" toLane="0" via=":South_West_1_0" dir="s" state="M"/>

    <connection from=":East_0" to="EtoNE" fromLane="0" toLane="0" dir="L" state="M"/>
    <connection from=":East_1" to="EtoJ" fromLane="0" toLane="0" via=":East_6_0" dir="l" state="m"/>
    <connection from=":East_6" to="EtoJ" fromLane="0" toLane="0" dir="l" state="M"/>
    <connection from=":East_2" to="EtoSE" fromLane="0" toLane="0" dir="r" state="M"/>
    <connection from=":East_3" to="EtoNE" fromLane="0" toLane="0" dir="l" state="M"/>
    <connection from=":East_4" to="EtoJ" fromLane="0" toLane="0" dir="r" state="M"/>
    <connection from=":East_5" to="EtoSE" fromLane="0" toLane="0" dir="R" state="M"/>
    <connection from=":Junction_0" to="JtoS" fromLane="0" toLane="0" dir="s" state="M"/>
    <connection from=":Junction_1" to="JtoW" fromLane="0" toLane="0" dir="s" state="M"/>
    <connection from=":Junction_2" to="JtoN" fromLane="0" toLane="0" dir="s" state="M"/>
    <connection from=":Junction_3" to="JtoE" fromLane="0" toLane="0" dir="s" state="M"/>
    <connection from=":North_0" to="NtoNW" fromLane="0" toLane="0" dir="L" state="M"/>
    <connection from=":North_1" to="NtoJ" fromLane="0" toLane="0" via=":North_6_0" dir="l" state="m"/>
    <connection from=":North_6" to="NtoJ" fromLane="0" toLane="0" dir="l" state="M"/>
    <connection from=":North_2" to="NtoNE" fromLane="0" toLane="0" dir="r" state="M"/>
    <connection from=":North_3" to="NtoNW" fromLane="0" toLane="0" dir="l" state="M"/>
    <connection from=":North_4" to="NtoJ" fromLane="0" toLane="0" dir="r" state="M"/>
    <connection from=":North_5" to="NtoNE" fromLane="0" toLane="0" dir="R" state="M"/>
    <connection from=":North_East_0" to="NEtoN" fromLane="0" toLane="0" dir="s" state="M"/>
    <connection from=":North_East_1" to="NEtoE" fromLane="0" toLane="0" dir="s" state="M"/>
    <connection from=":North_West_0" to="NWtoW" fromLane="0" toLane="0" dir="s" state="M"/>
    <connection from=":North_West_1" to="NWtoN" fromLane="0" toLane="0" dir="s" state="M"/>
    <connection from=":South_0" to="StoSW" fromLane="0" toLane="0" dir="r" state="M"/>
    <connection from=":South_1" to="StoSE" fromLane="0" toLane="0" dir="l" state="M"/>
    <connection from=":South_2" to="StoJ" fromLane="0" toLane="0" dir="r" state="M"/>
    <connection from=":South_3" to="StoSW" fromLane="0" toLane="0" dir="R" state="M"/>
    <connection from=":South_4" to="StoSE" fromLane="0" toLane="0" dir="L" state="M"/>
    <connection from=":South_5" to="StoJ" fromLane="0" toLane="0" via=":South_6_0" dir="l" state="m"/>
    <connection from=":South_6" to="StoJ" fromLane="0" toLane="0" dir="l" state="M"/>
    <connection from=":South_East_0" to="SEtoS" fromLane="0" toLane="0" dir="s" state="M"/>
    <connection from=":South_East_1" to="SEtoE" fromLane="0" toLane="0" dir="s" state="M"/>
    <connection from=":South_West_0" to="SWtoW" fromLane="0" toLane="0" dir="s" state="M"/>
    <connection from=":South_West_1" to="SWtoS" fromLane="0" toLane="0" dir="s" state="M"/>
    <connection from=":West_0" to="WtoSW" fromLane="0" toLane="0" dir="L" state="M"/>
    <connection from=":West_1" to="WtoJ" fromLane="0" toLane="0" via=":West_6_0" dir="l" state="m"/>
    <connection from=":West_6" to="WtoJ" fromLane="0" toLane="0" dir="l" state="M"/>
    <connection from=":West_2" to="WtoNW" fromLane="0" toLane="0" dir="r" state="M"/>
    <connection from=":West_3" to="WtoSW" fromLane="0" toLane="0" dir="l" state="M"/>
    <connection from=":West_4" to="WtoJ" fromLane="0" toLane="0" dir="r" state="M"/>
    <connection from=":West_5" to="WtoNW" fromLane="0" toLane="0" dir="R" state="M"/>

</net>
